* NGSPICE file created from cnn_kws_accel.ext - technology: sky130A

* Black-box entry subcircuit for sky130_fd_sc_hd__tapvpwrvgnd_1 abstract view
.subckt sky130_fd_sc_hd__tapvpwrvgnd_1 VGND VPWR
.ends

* Black-box entry subcircuit for sky130_fd_sc_hd__fill_1 abstract view
.subckt sky130_fd_sc_hd__fill_1 VGND VNB VPB VPWR
.ends

* Black-box entry subcircuit for sky130_fd_sc_hd__decap_6 abstract view
.subckt sky130_fd_sc_hd__decap_6 VGND VNB VPB VPWR
.ends

* Black-box entry subcircuit for sky130_fd_sc_hd__decap_4 abstract view
.subckt sky130_fd_sc_hd__decap_4 VGND VNB VPB VPWR
.ends

* Black-box entry subcircuit for sky130_fd_sc_hd__a32o_1 abstract view
.subckt sky130_fd_sc_hd__a32o_1 A1 A2 A3 B1 B2 VGND VNB VPB VPWR X
.ends

* Black-box entry subcircuit for sky130_fd_sc_hd__decap_8 abstract view
.subckt sky130_fd_sc_hd__decap_8 VGND VNB VPB VPWR
.ends

* Black-box entry subcircuit for sky130_fd_sc_hd__nor3_1 abstract view
.subckt sky130_fd_sc_hd__nor3_1 A B C VGND VNB VPB VPWR Y
.ends

* Black-box entry subcircuit for sky130_fd_sc_hd__decap_3 abstract view
.subckt sky130_fd_sc_hd__decap_3 VGND VNB VPB VPWR
.ends

* Black-box entry subcircuit for sky130_fd_sc_hd__dfrtp_1 abstract view
.subckt sky130_fd_sc_hd__dfrtp_1 CLK D RESET_B VGND VNB VPB VPWR Q
.ends

* Black-box entry subcircuit for sky130_fd_sc_hd__o311a_1 abstract view
.subckt sky130_fd_sc_hd__o311a_1 A1 A2 A3 B1 C1 VGND VNB VPB VPWR X
.ends

* Black-box entry subcircuit for sky130_fd_sc_hd__clkbuf_8 abstract view
.subckt sky130_fd_sc_hd__clkbuf_8 A VGND VNB VPB VPWR X
.ends

* Black-box entry subcircuit for sky130_ef_sc_hd__decap_12 abstract view
.subckt sky130_ef_sc_hd__decap_12 VGND VNB VPB VPWR
.ends

* Black-box entry subcircuit for sky130_fd_sc_hd__a211o_1 abstract view
.subckt sky130_fd_sc_hd__a211o_1 A1 A2 B1 C1 VGND VNB VPB VPWR X
.ends

* Black-box entry subcircuit for sky130_fd_sc_hd__nor2_1 abstract view
.subckt sky130_fd_sc_hd__nor2_1 A B VGND VNB VPB VPWR Y
.ends

* Black-box entry subcircuit for sky130_fd_sc_hd__mux2_1 abstract view
.subckt sky130_fd_sc_hd__mux2_1 A0 A1 S VGND VNB VPB VPWR X
.ends

* Black-box entry subcircuit for sky130_fd_sc_hd__dfstp_1 abstract view
.subckt sky130_fd_sc_hd__dfstp_1 CLK D SET_B VGND VNB VPB VPWR Q
.ends

* Black-box entry subcircuit for sky130_fd_sc_hd__fill_2 abstract view
.subckt sky130_fd_sc_hd__fill_2 VGND VNB VPB VPWR
.ends

* Black-box entry subcircuit for sky130_fd_sc_hd__nand3_1 abstract view
.subckt sky130_fd_sc_hd__nand3_1 A B C VGND VNB VPB VPWR Y
.ends

* Black-box entry subcircuit for sky130_fd_sc_hd__and2_2 abstract view
.subckt sky130_fd_sc_hd__and2_2 A B VGND VNB VPB VPWR X
.ends

* Black-box entry subcircuit for sky130_fd_sc_hd__a21oi_1 abstract view
.subckt sky130_fd_sc_hd__a21oi_1 A1 A2 B1 VGND VNB VPB VPWR Y
.ends

* Black-box entry subcircuit for sky130_fd_sc_hd__clkbuf_4 abstract view
.subckt sky130_fd_sc_hd__clkbuf_4 A VGND VNB VPB VPWR X
.ends

* Black-box entry subcircuit for sky130_fd_sc_hd__dlygate4sd3_1 abstract view
.subckt sky130_fd_sc_hd__dlygate4sd3_1 A VGND VNB VPB VPWR X
.ends

* Black-box entry subcircuit for sky130_fd_sc_hd__or3_1 abstract view
.subckt sky130_fd_sc_hd__or3_1 A B C VGND VNB VPB VPWR X
.ends

* Black-box entry subcircuit for sky130_fd_sc_hd__clkbuf_1 abstract view
.subckt sky130_fd_sc_hd__clkbuf_1 A VGND VNB VPB VPWR X
.ends

* Black-box entry subcircuit for sky130_fd_sc_hd__inv_2 abstract view
.subckt sky130_fd_sc_hd__inv_2 A VGND VNB VPB VPWR Y
.ends

* Black-box entry subcircuit for sky130_fd_sc_hd__nand2_1 abstract view
.subckt sky130_fd_sc_hd__nand2_1 A B VGND VNB VPB VPWR Y
.ends

* Black-box entry subcircuit for sky130_fd_sc_hd__or2_1 abstract view
.subckt sky130_fd_sc_hd__or2_1 A B VGND VNB VPB VPWR X
.ends

* Black-box entry subcircuit for sky130_fd_sc_hd__and2_1 abstract view
.subckt sky130_fd_sc_hd__and2_1 A B VGND VNB VPB VPWR X
.ends

* Black-box entry subcircuit for sky130_fd_sc_hd__dfrtp_2 abstract view
.subckt sky130_fd_sc_hd__dfrtp_2 CLK D RESET_B VGND VNB VPB VPWR Q
.ends

* Black-box entry subcircuit for sky130_fd_sc_hd__a21o_1 abstract view
.subckt sky130_fd_sc_hd__a21o_1 A1 A2 B1 VGND VNB VPB VPWR X
.ends

* Black-box entry subcircuit for sky130_fd_sc_hd__o21a_1 abstract view
.subckt sky130_fd_sc_hd__o21a_1 A1 A2 B1 VGND VNB VPB VPWR X
.ends

* Black-box entry subcircuit for sky130_fd_sc_hd__buf_2 abstract view
.subckt sky130_fd_sc_hd__buf_2 A VGND VNB VPB VPWR X
.ends

* Black-box entry subcircuit for sky130_fd_sc_hd__and3b_1 abstract view
.subckt sky130_fd_sc_hd__and3b_1 A_N B C VGND VNB VPB VPWR X
.ends

* Black-box entry subcircuit for sky130_fd_sc_hd__dfrtp_4 abstract view
.subckt sky130_fd_sc_hd__dfrtp_4 CLK D RESET_B VGND VNB VPB VPWR Q
.ends

* Black-box entry subcircuit for sky130_fd_sc_hd__or3b_1 abstract view
.subckt sky130_fd_sc_hd__or3b_1 A B C_N VGND VNB VPB VPWR X
.ends

* Black-box entry subcircuit for sky130_fd_sc_hd__and4_1 abstract view
.subckt sky130_fd_sc_hd__and4_1 A B C D VGND VNB VPB VPWR X
.ends

* Black-box entry subcircuit for sky130_fd_sc_hd__o21ai_1 abstract view
.subckt sky130_fd_sc_hd__o21ai_1 A1 A2 B1 VGND VNB VPB VPWR Y
.ends

* Black-box entry subcircuit for sky130_fd_sc_hd__a311o_1 abstract view
.subckt sky130_fd_sc_hd__a311o_1 A1 A2 A3 B1 C1 VGND VNB VPB VPWR X
.ends

* Black-box entry subcircuit for sky130_fd_sc_hd__and3_1 abstract view
.subckt sky130_fd_sc_hd__and3_1 A B C VGND VNB VPB VPWR X
.ends

* Black-box entry subcircuit for sky130_fd_sc_hd__dfxtp_1 abstract view
.subckt sky130_fd_sc_hd__dfxtp_1 CLK D VGND VNB VPB VPWR Q
.ends

* Black-box entry subcircuit for sky130_fd_sc_hd__or4b_2 abstract view
.subckt sky130_fd_sc_hd__or4b_2 A B C D_N VGND VNB VPB VPWR X
.ends

* Black-box entry subcircuit for sky130_fd_sc_hd__nand4_1 abstract view
.subckt sky130_fd_sc_hd__nand4_1 A B C D VGND VNB VPB VPWR Y
.ends

* Black-box entry subcircuit for sky130_fd_sc_hd__a31o_1 abstract view
.subckt sky130_fd_sc_hd__a31o_1 A1 A2 A3 B1 VGND VNB VPB VPWR X
.ends

* Black-box entry subcircuit for sky130_fd_sc_hd__o21ba_1 abstract view
.subckt sky130_fd_sc_hd__o21ba_1 A1 A2 B1_N VGND VNB VPB VPWR X
.ends

* Black-box entry subcircuit for sky130_fd_sc_hd__nor3b_1 abstract view
.subckt sky130_fd_sc_hd__nor3b_1 A B C_N VGND VNB VPB VPWR Y
.ends

* Black-box entry subcircuit for sky130_fd_sc_hd__or4b_1 abstract view
.subckt sky130_fd_sc_hd__or4b_1 A B C D_N VGND VNB VPB VPWR X
.ends

* Black-box entry subcircuit for sky130_fd_sc_hd__or2b_1 abstract view
.subckt sky130_fd_sc_hd__or2b_1 A B_N VGND VNB VPB VPWR X
.ends

* Black-box entry subcircuit for sky130_fd_sc_hd__a221o_1 abstract view
.subckt sky130_fd_sc_hd__a221o_1 A1 A2 B1 B2 C1 VGND VNB VPB VPWR X
.ends

* Black-box entry subcircuit for sky130_fd_sc_hd__o211ai_2 abstract view
.subckt sky130_fd_sc_hd__o211ai_2 A1 A2 B1 C1 VGND VNB VPB VPWR Y
.ends

* Black-box entry subcircuit for sky130_fd_sc_hd__a2111o_1 abstract view
.subckt sky130_fd_sc_hd__a2111o_1 A1 A2 B1 C1 D1 VGND VNB VPB VPWR X
.ends

* Black-box entry subcircuit for sky130_fd_sc_hd__xor2_1 abstract view
.subckt sky130_fd_sc_hd__xor2_1 A B VGND VNB VPB VPWR X
.ends

* Black-box entry subcircuit for sky130_fd_sc_hd__o221a_1 abstract view
.subckt sky130_fd_sc_hd__o221a_1 A1 A2 B1 B2 C1 VGND VNB VPB VPWR X
.ends

* Black-box entry subcircuit for sky130_fd_sc_hd__conb_1 abstract view
.subckt sky130_fd_sc_hd__conb_1 VGND VNB VPB VPWR HI LO
.ends

* Black-box entry subcircuit for sky130_fd_sc_hd__clkbuf_16 abstract view
.subckt sky130_fd_sc_hd__clkbuf_16 A VGND VNB VPB VPWR X
.ends

* Black-box entry subcircuit for sky130_fd_sc_hd__o2bb2a_1 abstract view
.subckt sky130_fd_sc_hd__o2bb2a_1 A1_N A2_N B1 B2 VGND VNB VPB VPWR X
.ends

* Black-box entry subcircuit for sky130_fd_sc_hd__a22o_1 abstract view
.subckt sky130_fd_sc_hd__a22o_1 A1 A2 B1 B2 VGND VNB VPB VPWR X
.ends

* Black-box entry subcircuit for sky130_fd_sc_hd__buf_1 abstract view
.subckt sky130_fd_sc_hd__buf_1 A VGND VNB VPB VPWR X
.ends

* Black-box entry subcircuit for sky130_fd_sc_hd__o31a_1 abstract view
.subckt sky130_fd_sc_hd__o31a_1 A1 A2 A3 B1 VGND VNB VPB VPWR X
.ends

* Black-box entry subcircuit for sky130_fd_sc_hd__and3b_2 abstract view
.subckt sky130_fd_sc_hd__and3b_2 A_N B C VGND VNB VPB VPWR X
.ends

* Black-box entry subcircuit for sky130_fd_sc_hd__and2b_1 abstract view
.subckt sky130_fd_sc_hd__and2b_1 A_N B VGND VNB VPB VPWR X
.ends

* Black-box entry subcircuit for sky130_fd_sc_hd__or4_1 abstract view
.subckt sky130_fd_sc_hd__or4_1 A B C D VGND VNB VPB VPWR X
.ends

* Black-box entry subcircuit for sky130_fd_sc_hd__clkbuf_2 abstract view
.subckt sky130_fd_sc_hd__clkbuf_2 A VGND VNB VPB VPWR X
.ends

* Black-box entry subcircuit for sky130_fd_sc_hd__o32a_1 abstract view
.subckt sky130_fd_sc_hd__o32a_1 A1 A2 A3 B1 B2 VGND VNB VPB VPWR X
.ends

* Black-box entry subcircuit for sky130_fd_sc_hd__or2_2 abstract view
.subckt sky130_fd_sc_hd__or2_2 A B VGND VNB VPB VPWR X
.ends

* Black-box entry subcircuit for sky130_fd_sc_hd__a2111o_4 abstract view
.subckt sky130_fd_sc_hd__a2111o_4 A1 A2 B1 C1 D1 VGND VNB VPB VPWR X
.ends

* Black-box entry subcircuit for sky130_fd_sc_hd__a21boi_1 abstract view
.subckt sky130_fd_sc_hd__a21boi_1 A1 A2 B1_N VGND VNB VPB VPWR Y
.ends

* Black-box entry subcircuit for sky130_fd_sc_hd__xnor2_1 abstract view
.subckt sky130_fd_sc_hd__xnor2_1 A B VGND VNB VPB VPWR Y
.ends

* Black-box entry subcircuit for sky130_fd_sc_hd__nor2b_2 abstract view
.subckt sky130_fd_sc_hd__nor2b_2 A B_N VGND VNB VPB VPWR Y
.ends

* Black-box entry subcircuit for sky130_fd_sc_hd__a31oi_1 abstract view
.subckt sky130_fd_sc_hd__a31oi_1 A1 A2 A3 B1 VGND VNB VPB VPWR Y
.ends

* Black-box entry subcircuit for sky130_fd_sc_hd__o21ai_4 abstract view
.subckt sky130_fd_sc_hd__o21ai_4 A1 A2 B1 VGND VNB VPB VPWR Y
.ends

* Black-box entry subcircuit for sky130_fd_sc_hd__o211a_1 abstract view
.subckt sky130_fd_sc_hd__o211a_1 A1 A2 B1 C1 VGND VNB VPB VPWR X
.ends

* Black-box entry subcircuit for sky130_fd_sc_hd__a21bo_1 abstract view
.subckt sky130_fd_sc_hd__a21bo_1 A1 A2 B1_N VGND VNB VPB VPWR X
.ends

* Black-box entry subcircuit for sky130_fd_sc_hd__o21bai_1 abstract view
.subckt sky130_fd_sc_hd__o21bai_1 A1 A2 B1_N VGND VNB VPB VPWR Y
.ends

* Black-box entry subcircuit for sky130_fd_sc_hd__nor3b_2 abstract view
.subckt sky130_fd_sc_hd__nor3b_2 A B C_N VGND VNB VPB VPWR Y
.ends

* Black-box entry subcircuit for sky130_fd_sc_hd__or4_2 abstract view
.subckt sky130_fd_sc_hd__or4_2 A B C D VGND VNB VPB VPWR X
.ends

* Black-box entry subcircuit for sky130_fd_sc_hd__and4_2 abstract view
.subckt sky130_fd_sc_hd__and4_2 A B C D VGND VNB VPB VPWR X
.ends

* Black-box entry subcircuit for sky130_fd_sc_hd__nor4_1 abstract view
.subckt sky130_fd_sc_hd__nor4_1 A B C D VGND VNB VPB VPWR Y
.ends

* Black-box entry subcircuit for sky130_fd_sc_hd__nand3_2 abstract view
.subckt sky130_fd_sc_hd__nand3_2 A B C VGND VNB VPB VPWR Y
.ends

* Black-box entry subcircuit for sky130_fd_sc_hd__a2bb2o_1 abstract view
.subckt sky130_fd_sc_hd__a2bb2o_1 A1_N A2_N B1 B2 VGND VNB VPB VPWR X
.ends

* Black-box entry subcircuit for sky130_fd_sc_hd__clkdlybuf4s25_1 abstract view
.subckt sky130_fd_sc_hd__clkdlybuf4s25_1 A VGND VNB VPB VPWR X
.ends

.subckt cnn_kws_accel audio_sample[0] audio_sample[10] audio_sample[11] audio_sample[12]
+ audio_sample[13] audio_sample[14] audio_sample[15] audio_sample[1] audio_sample[2]
+ audio_sample[3] audio_sample[4] audio_sample[5] audio_sample[6] audio_sample[7]
+ audio_sample[8] audio_sample[9] clk done psram_ce_n psram_d[0] psram_douten[0] psram_douten[1]
+ psram_douten[2] psram_sck rst_n sample_valid start vccd1 vssd1 psram_douten[3] psram_d[3]
+ psram_d[2] psram_d[1]
XTAP_177 vssd1 vccd1 sky130_fd_sc_hd__tapvpwrvgnd_1
XTAP_188 vssd1 vccd1 sky130_fd_sc_hd__tapvpwrvgnd_1
XTAP_199 vssd1 vccd1 sky130_fd_sc_hd__tapvpwrvgnd_1
XFILLER_0_17_233 vssd1 vssd1 vccd1 vccd1 sky130_fd_sc_hd__fill_1
XFILLER_0_17_266 vssd1 vssd1 vccd1 vccd1 sky130_fd_sc_hd__decap_6
XFILLER_0_32_225 vssd1 vssd1 vccd1 vccd1 sky130_fd_sc_hd__decap_4
XFILLER_0_23_225 vssd1 vssd1 vccd1 vccd1 sky130_fd_sc_hd__decap_6
XFILLER_0_13_73 vssd1 vssd1 vccd1 vccd1 sky130_fd_sc_hd__fill_1
X_0985_ _0470_ _0475_ _0477_ _0471_ net152 vssd1 vssd1 vccd1 vccd1 _0125_ sky130_fd_sc_hd__a32o_1
XFILLER_0_14_214 vssd1 vssd1 vccd1 vccd1 sky130_fd_sc_hd__fill_1
XFILLER_0_1_163 vssd1 vssd1 vccd1 vccd1 sky130_fd_sc_hd__decap_4
XFILLER_0_9_263 vssd1 vssd1 vccd1 vccd1 sky130_fd_sc_hd__decap_8
XFILLER_0_18_29 vssd1 vssd1 vccd1 vccd1 sky130_fd_sc_hd__fill_1
X_0770_ _0193_ _0334_ _0335_ vssd1 vssd1 vccd1 vccd1 _0052_ sky130_fd_sc_hd__nor3_1
XFILLER_0_11_206 vssd1 vssd1 vccd1 vccd1 sky130_fd_sc_hd__decap_3
XFILLER_0_11_217 vssd1 vssd1 vccd1 vccd1 sky130_fd_sc_hd__decap_6
X_1184_ clknet_4_2_0_clk maxpool.psram_ctrl.nstate net15 vssd1 vssd1 vccd1 vccd1 maxpool.psram_ctrl.state
+ sky130_fd_sc_hd__dfrtp_1
XFILLER_0_24_50 vssd1 vssd1 vccd1 vccd1 sky130_fd_sc_hd__decap_4
XFILLER_0_6_244 vssd1 vssd1 vccd1 vccd1 sky130_fd_sc_hd__decap_8
X_0968_ maxpool.state\[0\] net138 _0229_ _0466_ _0213_ vssd1 vssd1 vccd1 vccd1 _0119_
+ sky130_fd_sc_hd__o311a_1
Xclkbuf_4_12_0_clk clknet_0_clk vssd1 vssd1 vccd1 vccd1 clknet_4_12_0_clk sky130_fd_sc_hd__clkbuf_8
X_0899_ _0415_ _0420_ _0421_ _0417_ net156 vssd1 vssd1 vccd1 vccd1 _0095_ sky130_fd_sc_hd__a32o_1
XFILLER_0_37_169 vssd1 vssd1 vccd1 vccd1 sky130_fd_sc_hd__fill_1
XFILLER_0_0_29 vssd1 vssd1 vccd1 vccd1 sky130_ef_sc_hd__decap_12
X_0822_ mfcc.mel.coeff_counter\[4\] _0368_ _0210_ _0315_ vssd1 vssd1 vccd1 vccd1 _0370_
+ sky130_fd_sc_hd__a211o_1
X_0753_ _0315_ _0324_ vssd1 vssd1 vccd1 vccd1 _0325_ sky130_fd_sc_hd__nor2_1
XFILLER_0_10_85 vssd1 vssd1 vccd1 vccd1 sky130_ef_sc_hd__decap_12
X_0684_ conv2.addr\[9\] conv2.addr\[8\] conv2.psram_ctrl.counter\[0\] vssd1 vssd1
+ vccd1 vccd1 _0286_ sky130_fd_sc_hd__mux2_1
X_1098_ clknet_4_0_0_clk net91 net7 vssd1 vssd1 vccd1 vccd1 conv1.psram_ctrl.has_wait_states
+ sky130_fd_sc_hd__dfrtp_1
X_1167_ clknet_4_9_0_clk net112 net19 vssd1 vssd1 vccd1 vccd1 fc1.state\[0\] sky130_fd_sc_hd__dfstp_1
XFILLER_0_19_169 vssd1 vssd1 vccd1 vccd1 sky130_fd_sc_hd__fill_2
XFILLER_0_34_128 vssd1 vssd1 vccd1 vccd1 sky130_ef_sc_hd__decap_12
XFILLER_0_25_117 vssd1 vssd1 vccd1 vccd1 sky130_fd_sc_hd__fill_1
X_1021_ softmax.psram_ctrl.counter\[2\] softmax.psram_ctrl.counter\[1\] softmax.psram_ctrl.counter\[0\]
+ vssd1 vssd1 vccd1 vccd1 _0502_ sky130_fd_sc_hd__nand3_1
X_0805_ mfcc.mel.filter_counter\[5\] mfcc.mel.filter_counter\[4\] _0350_ vssd1 vssd1
+ vccd1 vccd1 _0358_ sky130_fd_sc_hd__nand3_1
XFILLER_0_16_106 vssd1 vssd1 vccd1 vccd1 sky130_ef_sc_hd__decap_12
XFILLER_0_24_161 vssd1 vssd1 vccd1 vccd1 sky130_fd_sc_hd__decap_6
X_0598_ mfcc.mel.state\[1\] _0205_ vssd1 vssd1 vccd1 vccd1 _0210_ sky130_fd_sc_hd__and2_2
X_0736_ mfcc.dct.state\[1\] _0188_ net104 vssd1 vssd1 vccd1 vccd1 _0314_ sky130_fd_sc_hd__a21oi_1
Xfanout7 net8 vssd1 vssd1 vccd1 vccd1 net7 sky130_fd_sc_hd__clkbuf_4
X_0667_ _0229_ _0260_ _0268_ _0234_ vssd1 vssd1 vccd1 vccd1 _0269_ sky130_fd_sc_hd__a211o_1
XFILLER_0_24_194 vssd1 vssd1 vccd1 vccd1 sky130_fd_sc_hd__fill_2
XFILLER_0_34_3 vssd1 vssd1 vccd1 vccd1 sky130_ef_sc_hd__decap_12
Xhold30 mfcc.mel.coeff_counter\[4\] vssd1 vssd1 vccd1 vccd1 net59 sky130_fd_sc_hd__dlygate4sd3_1
Xhold52 softmax.psram_ctrl.start vssd1 vssd1 vccd1 vccd1 net81 sky130_fd_sc_hd__dlygate4sd3_1
Xhold74 conv2.psram_ctrl.counter\[4\] vssd1 vssd1 vccd1 vccd1 net103 sky130_fd_sc_hd__dlygate4sd3_1
Xhold41 fc2.state\[3\] vssd1 vssd1 vccd1 vccd1 net70 sky130_fd_sc_hd__dlygate4sd3_1
Xhold63 fc1.psram_ctrl.start vssd1 vssd1 vccd1 vccd1 net92 sky130_fd_sc_hd__dlygate4sd3_1
XFILLER_0_26_29 vssd1 vssd1 vccd1 vccd1 sky130_fd_sc_hd__fill_2
XFILLER_0_30_197 vssd1 vssd1 vccd1 vccd1 sky130_fd_sc_hd__decap_8
Xhold96 fc1.state\[1\] vssd1 vssd1 vccd1 vccd1 net125 sky130_fd_sc_hd__dlygate4sd3_1
Xhold85 _0101_ vssd1 vssd1 vccd1 vccd1 net114 sky130_fd_sc_hd__dlygate4sd3_1
XFILLER_0_38_264 vssd1 vssd1 vccd1 vccd1 sky130_fd_sc_hd__decap_8
XTAP_304 vssd1 vccd1 sky130_fd_sc_hd__tapvpwrvgnd_1
X_0521_ fc2.state\[2\] fc2.state\[1\] fc2.state\[3\] vssd1 vssd1 vccd1 vccd1 _0149_
+ sky130_fd_sc_hd__or3_1
X_1004_ _0490_ vssd1 vssd1 vccd1 vccd1 _0131_ sky130_fd_sc_hd__clkbuf_1
XFILLER_0_32_94 vssd1 vssd1 vccd1 vccd1 sky130_ef_sc_hd__decap_12
XFILLER_0_12_197 vssd1 vssd1 vccd1 vccd1 sky130_ef_sc_hd__decap_12
X_0719_ _0307_ _0184_ vssd1 vssd1 vccd1 vccd1 _0004_ sky130_fd_sc_hd__nor2_1
XFILLER_0_35_223 vssd1 vssd1 vccd1 vccd1 sky130_fd_sc_hd__fill_1
XFILLER_0_37_39 vssd1 vssd1 vccd1 vccd1 sky130_ef_sc_hd__decap_12
XFILLER_0_5_139 vssd1 vssd1 vccd1 vccd1 sky130_fd_sc_hd__decap_8
XTAP_134 vssd1 vccd1 sky130_fd_sc_hd__tapvpwrvgnd_1
XTAP_123 vssd1 vccd1 sky130_fd_sc_hd__tapvpwrvgnd_1
XTAP_112 vssd1 vccd1 sky130_fd_sc_hd__tapvpwrvgnd_1
XTAP_101 vssd1 vccd1 sky130_fd_sc_hd__tapvpwrvgnd_1
XTAP_145 vssd1 vccd1 sky130_fd_sc_hd__tapvpwrvgnd_1
XTAP_156 vssd1 vccd1 sky130_fd_sc_hd__tapvpwrvgnd_1
XTAP_167 vssd1 vccd1 sky130_fd_sc_hd__tapvpwrvgnd_1
XTAP_178 vssd1 vccd1 sky130_fd_sc_hd__tapvpwrvgnd_1
XTAP_189 vssd1 vccd1 sky130_fd_sc_hd__tapvpwrvgnd_1
XFILLER_0_17_223 vssd1 vssd1 vccd1 vccd1 sky130_fd_sc_hd__fill_1
XFILLER_0_4_194 vssd1 vssd1 vccd1 vccd1 sky130_fd_sc_hd__fill_2
X_0984_ _0476_ vssd1 vssd1 vccd1 vccd1 _0477_ sky130_fd_sc_hd__inv_2
XFILLER_0_14_259 vssd1 vssd1 vccd1 vccd1 sky130_fd_sc_hd__decap_4
XFILLER_0_20_218 vssd1 vssd1 vccd1 vccd1 sky130_ef_sc_hd__decap_12
XFILLER_0_34_29 vssd1 vssd1 vccd1 vccd1 sky130_ef_sc_hd__decap_12
X_1183_ clknet_4_10_0_clk _0129_ net15 vssd1 vssd1 vccd1 vccd1 maxpool.psram_ctrl.counter\[7\]
+ sky130_fd_sc_hd__dfrtp_1
X_0967_ maxpool.state\[0\] net6 vssd1 vssd1 vccd1 vccd1 _0466_ sky130_fd_sc_hd__nand2_1
XFILLER_0_10_251 vssd1 vssd1 vccd1 vccd1 sky130_fd_sc_hd__fill_1
X_0898_ _0178_ _0419_ vssd1 vssd1 vccd1 vccd1 _0421_ sky130_fd_sc_hd__or2_1
X_0752_ mfcc.dct.input_counter\[0\] _0323_ vssd1 vssd1 vccd1 vccd1 _0324_ sky130_fd_sc_hd__and2_1
X_0821_ _0368_ _0369_ vssd1 vssd1 vccd1 vccd1 _0069_ sky130_fd_sc_hd__nor2_1
X_0683_ conv2.psram_ctrl.counter\[3\] conv2.psram_ctrl.counter\[5\] vssd1 vssd1 vccd1
+ vccd1 _0285_ sky130_fd_sc_hd__or2_1
X_1166_ clknet_4_11_0_clk _0118_ net17 vssd1 vssd1 vccd1 vccd1 fc1.psram_ctrl.sck
+ sky130_fd_sc_hd__dfrtp_2
XFILLER_0_19_84 vssd1 vssd1 vccd1 vccd1 sky130_fd_sc_hd__fill_1
X_1097_ clknet_4_4_0_clk _0003_ net11 vssd1 vssd1 vccd1 vccd1 conv2.state\[5\] sky130_fd_sc_hd__dfrtp_1
XFILLER_0_33_173 vssd1 vssd1 vccd1 vccd1 sky130_fd_sc_hd__decap_3
X_1020_ softmax.psram_ctrl.counter\[1\] softmax.psram_ctrl.counter\[0\] softmax.psram_ctrl.counter\[2\]
+ vssd1 vssd1 vccd1 vccd1 _0501_ sky130_fd_sc_hd__a21o_1
Xclkbuf_4_11_0_clk clknet_0_clk vssd1 vssd1 vccd1 vccd1 clknet_4_11_0_clk sky130_fd_sc_hd__clkbuf_8
X_0804_ mfcc.mel.filter_counter\[4\] _0350_ mfcc.mel.filter_counter\[5\] vssd1 vssd1
+ vccd1 vccd1 _0357_ sky130_fd_sc_hd__a21o_1
X_0735_ _0312_ _0313_ _0221_ vssd1 vssd1 vccd1 vccd1 _0039_ sky130_fd_sc_hd__o21a_1
XFILLER_0_16_118 vssd1 vssd1 vccd1 vccd1 sky130_ef_sc_hd__decap_12
Xfanout8 net14 vssd1 vssd1 vccd1 vccd1 net8 sky130_fd_sc_hd__buf_2
X_0597_ _0209_ vssd1 vssd1 vccd1 vccd1 _0026_ sky130_fd_sc_hd__clkbuf_1
X_0666_ _0229_ _0263_ _0267_ vssd1 vssd1 vccd1 vccd1 _0268_ sky130_fd_sc_hd__and3b_1
X_1149_ clknet_4_9_0_clk _0104_ net18 vssd1 vssd1 vccd1 vccd1 state\[0\] sky130_fd_sc_hd__dfrtp_4
XFILLER_0_27_3 vssd1 vssd1 vccd1 vccd1 sky130_fd_sc_hd__decap_8
XFILLER_0_30_165 vssd1 vssd1 vccd1 vccd1 sky130_fd_sc_hd__decap_8
Xhold20 mfcc.dct.input_counter\[4\] vssd1 vssd1 vccd1 vccd1 net49 sky130_fd_sc_hd__dlygate4sd3_1
Xhold86 mfcc.mel.filter_counter\[0\] vssd1 vssd1 vccd1 vccd1 net115 sky130_fd_sc_hd__dlygate4sd3_1
Xhold75 mfcc.dct.output_counter\[0\] vssd1 vssd1 vccd1 vccd1 net104 sky130_fd_sc_hd__dlygate4sd3_1
Xhold53 mfcc.log.shift_count\[0\] vssd1 vssd1 vccd1 vccd1 net82 sky130_fd_sc_hd__dlygate4sd3_1
Xhold64 conv1.psram_ctrl.counter\[4\] vssd1 vssd1 vccd1 vccd1 net93 sky130_fd_sc_hd__dlygate4sd3_1
Xhold31 conv1.psram_ctrl.counter\[6\] vssd1 vssd1 vccd1 vccd1 net60 sky130_fd_sc_hd__dlygate4sd3_1
Xhold42 _0021_ vssd1 vssd1 vccd1 vccd1 net71 sky130_fd_sc_hd__dlygate4sd3_1
Xhold97 fc2.addr\[10\] vssd1 vssd1 vccd1 vccd1 net126 sky130_fd_sc_hd__dlygate4sd3_1
XFILLER_0_42_29 vssd1 vssd1 vccd1 vccd1 sky130_ef_sc_hd__decap_12
XTAP_305 vssd1 vccd1 sky130_fd_sc_hd__tapvpwrvgnd_1
XFILLER_0_16_41 vssd1 vssd1 vccd1 vccd1 sky130_fd_sc_hd__fill_1
X_1003_ net126 _0028_ vssd1 vssd1 vccd1 vccd1 _0490_ sky130_fd_sc_hd__or2_1
XFILLER_0_12_165 vssd1 vssd1 vccd1 vccd1 sky130_ef_sc_hd__decap_12
X_0718_ net125 vssd1 vssd1 vccd1 vccd1 _0307_ sky130_fd_sc_hd__inv_2
X_0649_ maxpool.psram_ctrl.counter\[1\] maxpool.psram_ctrl.counter\[0\] maxpool.addr\[11\]
+ vssd1 vssd1 vccd1 vccd1 _0251_ sky130_fd_sc_hd__or3b_1
XFILLER_0_7_181 vssd1 vssd1 vccd1 vccd1 sky130_ef_sc_hd__decap_12
XFILLER_0_26_224 vssd1 vssd1 vccd1 vccd1 sky130_fd_sc_hd__fill_1
XTAP_124 vssd1 vccd1 sky130_fd_sc_hd__tapvpwrvgnd_1
XTAP_113 vssd1 vccd1 sky130_fd_sc_hd__tapvpwrvgnd_1
XTAP_102 vssd1 vccd1 sky130_fd_sc_hd__tapvpwrvgnd_1
XTAP_135 vssd1 vccd1 sky130_fd_sc_hd__tapvpwrvgnd_1
XTAP_146 vssd1 vccd1 sky130_fd_sc_hd__tapvpwrvgnd_1
XTAP_157 vssd1 vccd1 sky130_fd_sc_hd__tapvpwrvgnd_1
XTAP_168 vssd1 vccd1 sky130_fd_sc_hd__tapvpwrvgnd_1
XTAP_179 vssd1 vccd1 sky130_fd_sc_hd__tapvpwrvgnd_1
XFILLER_0_7_61 vssd1 vssd1 vccd1 vccd1 sky130_fd_sc_hd__decap_4
XFILLER_0_31_260 vssd1 vssd1 vccd1 vccd1 sky130_ef_sc_hd__decap_12
X_0983_ maxpool.psram_ctrl.counter\[3\] maxpool.psram_ctrl.counter\[2\] maxpool.psram_ctrl.counter\[1\]
+ maxpool.psram_ctrl.counter\[0\] vssd1 vssd1 vccd1 vccd1 _0476_ sky130_fd_sc_hd__and4_1
XFILLER_0_38_83 vssd1 vssd1 vccd1 vccd1 sky130_fd_sc_hd__fill_1
XFILLER_0_9_243 vssd1 vssd1 vccd1 vccd1 sky130_fd_sc_hd__fill_2
XFILLER_0_20_208 vssd1 vssd1 vccd1 vccd1 sky130_fd_sc_hd__fill_1
XFILLER_0_13_271 vssd1 vssd1 vccd1 vccd1 sky130_fd_sc_hd__fill_2
X_1182_ clknet_4_8_0_clk net140 net15 vssd1 vssd1 vccd1 vccd1 maxpool.psram_ctrl.counter\[6\]
+ sky130_fd_sc_hd__dfrtp_1
X_0966_ _0464_ _0465_ _0184_ vssd1 vssd1 vccd1 vccd1 _0118_ sky130_fd_sc_hd__o21a_1
X_0897_ _0178_ _0419_ vssd1 vssd1 vccd1 vccd1 _0420_ sky130_fd_sc_hd__nand2_1
XFILLER_0_4_62 vssd1 vssd1 vccd1 vccd1 sky130_fd_sc_hd__decap_3
XFILLER_0_37_105 vssd1 vssd1 vccd1 vccd1 sky130_fd_sc_hd__fill_2
XFILLER_0_45_193 vssd1 vssd1 vccd1 vccd1 sky130_fd_sc_hd__decap_3
XFILLER_0_45_29 vssd1 vssd1 vccd1 vccd1 sky130_fd_sc_hd__fill_2
XFILLER_0_45_18 vssd1 vssd1 vccd1 vccd1 sky130_fd_sc_hd__decap_8
X_0751_ mfcc.dct.state\[1\] mfcc.dct.data_valid mfcc.dct.state\[0\] vssd1 vssd1 vccd1
+ vccd1 _0323_ sky130_fd_sc_hd__mux2_1
X_0820_ net76 _0365_ _0038_ vssd1 vssd1 vccd1 vccd1 _0369_ sky130_fd_sc_hd__o21ai_1
X_0682_ _0225_ _0269_ _0276_ _0283_ _0169_ vssd1 vssd1 vccd1 vccd1 _0284_ sky130_fd_sc_hd__a311o_1
XFILLER_0_19_63 vssd1 vssd1 vccd1 vccd1 sky130_fd_sc_hd__decap_6
XFILLER_0_35_51 vssd1 vssd1 vccd1 vccd1 sky130_fd_sc_hd__decap_4
X_1096_ clknet_4_4_0_clk _0002_ net12 vssd1 vssd1 vccd1 vccd1 conv2.data_out_valid
+ sky130_fd_sc_hd__dfrtp_2
X_1165_ clknet_4_14_0_clk _0117_ net21 vssd1 vssd1 vccd1 vccd1 fc1.addr\[10\] sky130_fd_sc_hd__dfrtp_1
X_0949_ fc2.psram_ctrl.counter\[4\] _0452_ vssd1 vssd1 vccd1 vccd1 _0455_ sky130_fd_sc_hd__nor2_1
XFILLER_0_33_141 vssd1 vssd1 vccd1 vccd1 sky130_fd_sc_hd__decap_8
X_0803_ _0355_ _0356_ vssd1 vssd1 vccd1 vccd1 _0064_ sky130_fd_sc_hd__nor2_1
X_0665_ _0264_ _0265_ _0266_ _0217_ vssd1 vssd1 vccd1 vccd1 _0267_ sky130_fd_sc_hd__a211o_1
Xfanout9 net10 vssd1 vssd1 vccd1 vccd1 net9 sky130_fd_sc_hd__clkbuf_4
X_0734_ softmax.psram_ctrl.sck softmax.psram_ce_n vssd1 vssd1 vccd1 vccd1 _0313_ sky130_fd_sc_hd__and2_1
XFILLER_0_21_86 vssd1 vssd1 vccd1 vccd1 sky130_fd_sc_hd__fill_1
X_0596_ mfcc.mel.state\[1\] _0198_ _0208_ vssd1 vssd1 vccd1 vccd1 _0209_ sky130_fd_sc_hd__and3_1
X_1079_ clknet_4_15_0_clk _0061_ vssd1 vssd1 vccd1 vccd1 mfcc.mel.filter_counter\[1\]
+ sky130_fd_sc_hd__dfxtp_1
X_1148_ clknet_4_1_0_clk _0103_ net10 vssd1 vssd1 vccd1 vccd1 conv2.psram_ctrl.sck
+ sky130_fd_sc_hd__dfrtp_2
Xhold43 mfcc.dct.input_counter\[3\] vssd1 vssd1 vccd1 vccd1 net72 sky130_fd_sc_hd__dlygate4sd3_1
Xhold76 mfcc.mel.filter_counter\[1\] vssd1 vssd1 vccd1 vccd1 net105 sky130_fd_sc_hd__dlygate4sd3_1
Xhold98 mfcc.mel.filter_counter\[4\] vssd1 vssd1 vccd1 vccd1 net127 sky130_fd_sc_hd__dlygate4sd3_1
Xhold21 mfcc.dct.output_counter\[4\] vssd1 vssd1 vccd1 vccd1 net50 sky130_fd_sc_hd__dlygate4sd3_1
Xhold65 conv1.state\[2\] vssd1 vssd1 vccd1 vccd1 net94 sky130_fd_sc_hd__dlygate4sd3_1
Xhold32 _0079_ vssd1 vssd1 vccd1 vccd1 net61 sky130_fd_sc_hd__dlygate4sd3_1
Xhold54 conv2.psram_ctrl.counter\[7\] vssd1 vssd1 vccd1 vccd1 net83 sky130_fd_sc_hd__dlygate4sd3_1
Xhold87 fc2.psram_ctrl.start vssd1 vssd1 vccd1 vccd1 net116 sky130_fd_sc_hd__dlygate4sd3_1
Xhold10 _0020_ vssd1 vssd1 vccd1 vccd1 net39 sky130_fd_sc_hd__dlygate4sd3_1
XFILLER_0_6_19 vssd1 vssd1 vccd1 vccd1 sky130_fd_sc_hd__fill_1
XTAP_306 vssd1 vccd1 sky130_fd_sc_hd__tapvpwrvgnd_1
XFILLER_0_21_177 vssd1 vssd1 vccd1 vccd1 sky130_fd_sc_hd__fill_2
XFILLER_0_21_199 vssd1 vssd1 vccd1 vccd1 sky130_fd_sc_hd__decap_3
X_1002_ _0489_ _0028_ _0302_ vssd1 vssd1 vccd1 vccd1 _0130_ sky130_fd_sc_hd__o21ai_1
XFILLER_0_44_236 vssd1 vssd1 vccd1 vccd1 sky130_ef_sc_hd__decap_12
XFILLER_0_32_41 vssd1 vssd1 vccd1 vccd1 sky130_ef_sc_hd__decap_12
X_0648_ conv1.psram_ctrl.counter\[3\] conv1.psram_ctrl.counter\[5\] _0174_ _0249_
+ vssd1 vssd1 vccd1 vccd1 _0250_ sky130_fd_sc_hd__or4b_2
XFILLER_0_12_177 vssd1 vssd1 vccd1 vccd1 sky130_fd_sc_hd__decap_4
X_0717_ _0306_ _0184_ vssd1 vssd1 vccd1 vccd1 _0005_ sky130_fd_sc_hd__nor2_1
X_0579_ mfcc.log.shift_count\[3\] mfcc.log.shift_count\[2\] mfcc.log.shift_count\[1\]
+ mfcc.log.shift_count\[0\] vssd1 vssd1 vccd1 vccd1 _0196_ sky130_fd_sc_hd__nand4_1
XFILLER_0_35_203 vssd1 vssd1 vccd1 vccd1 sky130_fd_sc_hd__fill_1
Xclkbuf_4_10_0_clk clknet_0_clk vssd1 vssd1 vccd1 vccd1 clknet_4_10_0_clk sky130_fd_sc_hd__clkbuf_8
XFILLER_0_9_3 vssd1 vssd1 vccd1 vccd1 sky130_fd_sc_hd__decap_8
XFILLER_0_5_108 vssd1 vssd1 vccd1 vccd1 sky130_fd_sc_hd__decap_4
XTAP_114 vssd1 vccd1 sky130_fd_sc_hd__tapvpwrvgnd_1
XTAP_103 vssd1 vccd1 sky130_fd_sc_hd__tapvpwrvgnd_1
XTAP_125 vssd1 vccd1 sky130_fd_sc_hd__tapvpwrvgnd_1
XTAP_136 vssd1 vccd1 sky130_fd_sc_hd__tapvpwrvgnd_1
XTAP_147 vssd1 vccd1 sky130_fd_sc_hd__tapvpwrvgnd_1
XTAP_158 vssd1 vccd1 sky130_fd_sc_hd__tapvpwrvgnd_1
XTAP_169 vssd1 vccd1 sky130_fd_sc_hd__tapvpwrvgnd_1
XFILLER_0_43_51 vssd1 vssd1 vccd1 vccd1 sky130_fd_sc_hd__decap_4
XFILLER_0_17_225 vssd1 vssd1 vccd1 vccd1 sky130_fd_sc_hd__decap_8
XFILLER_0_31_272 vssd1 vssd1 vccd1 vccd1 sky130_fd_sc_hd__fill_1
X_0982_ maxpool.psram_ctrl.counter\[2\] maxpool.psram_ctrl.counter\[1\] maxpool.psram_ctrl.counter\[0\]
+ maxpool.psram_ctrl.counter\[3\] vssd1 vssd1 vccd1 vccd1 _0475_ sky130_fd_sc_hd__a31o_1
XFILLER_0_13_54 vssd1 vssd1 vccd1 vccd1 sky130_fd_sc_hd__fill_2
XFILLER_0_13_65 vssd1 vssd1 vccd1 vccd1 sky130_fd_sc_hd__decap_3
XFILLER_0_13_98 vssd1 vssd1 vccd1 vccd1 sky130_fd_sc_hd__decap_3
XFILLER_0_1_155 vssd1 vssd1 vccd1 vccd1 sky130_fd_sc_hd__decap_4
XFILLER_0_1_177 vssd1 vssd1 vccd1 vccd1 sky130_fd_sc_hd__decap_4
XFILLER_0_9_233 vssd1 vssd1 vccd1 vccd1 sky130_fd_sc_hd__fill_2
X_1181_ clknet_4_8_0_clk _0127_ net15 vssd1 vssd1 vccd1 vccd1 maxpool.psram_ctrl.counter\[5\]
+ sky130_fd_sc_hd__dfrtp_2
XFILLER_0_40_85 vssd1 vssd1 vccd1 vccd1 sky130_fd_sc_hd__decap_4
XFILLER_0_40_41 vssd1 vssd1 vccd1 vccd1 sky130_ef_sc_hd__decap_12
X_0965_ _0236_ _0242_ vssd1 vssd1 vccd1 vccd1 _0465_ sky130_fd_sc_hd__nor2_1
X_0896_ net117 _0182_ _0419_ _0417_ fc1.psram_ctrl.counter\[1\] vssd1 vssd1 vccd1
+ vccd1 _0094_ sky130_fd_sc_hd__a32o_1
XFILLER_0_10_253 vssd1 vssd1 vccd1 vccd1 sky130_ef_sc_hd__decap_12
XFILLER_0_28_128 vssd1 vssd1 vccd1 vccd1 sky130_ef_sc_hd__decap_12
X_0750_ net63 _0321_ _0322_ vssd1 vssd1 vccd1 vccd1 _0045_ sky130_fd_sc_hd__o21ba_1
X_0681_ _0281_ _0282_ _0225_ vssd1 vssd1 vccd1 vccd1 _0283_ sky130_fd_sc_hd__o21ba_1
XFILLER_0_19_53 vssd1 vssd1 vccd1 vccd1 sky130_fd_sc_hd__decap_3
X_1095_ clknet_4_3_0_clk _0015_ net10 vssd1 vssd1 vccd1 vccd1 conv2.state\[3\] sky130_fd_sc_hd__dfrtp_1
X_1164_ clknet_4_14_0_clk net78 net21 vssd1 vssd1 vccd1 vccd1 fc1.addr\[8\] sky130_fd_sc_hd__dfrtp_1
X_0948_ _0443_ _0453_ _0445_ vssd1 vssd1 vccd1 vccd1 _0454_ sky130_fd_sc_hd__a21o_1
XFILLER_0_42_186 vssd1 vssd1 vccd1 vccd1 sky130_fd_sc_hd__fill_1
XFILLER_0_2_272 vssd1 vssd1 vccd1 vccd1 sky130_fd_sc_hd__fill_1
X_0879_ _0394_ _0408_ vssd1 vssd1 vccd1 vccd1 _0409_ sky130_fd_sc_hd__nor2_1
XFILLER_0_0_209 vssd1 vssd1 vccd1 vccd1 sky130_ef_sc_hd__decap_12
X_0802_ mfcc.mel.filter_counter\[4\] _0344_ _0350_ _0315_ vssd1 vssd1 vccd1 vccd1
+ _0356_ sky130_fd_sc_hd__a31o_1
X_0664_ softmax.psram_ctrl.counter\[5\] softmax.psram_ctrl.counter\[6\] softmax.psram_ctrl.counter\[2\]
+ vssd1 vssd1 vccd1 vccd1 _0266_ sky130_fd_sc_hd__or3b_1
X_0733_ softmax.psram_ctrl.sck softmax.psram_ce_n vssd1 vssd1 vccd1 vccd1 _0312_ sky130_fd_sc_hd__nor2_1
XFILLER_0_21_65 vssd1 vssd1 vccd1 vccd1 sky130_fd_sc_hd__fill_1
X_0595_ _0205_ _0207_ vssd1 vssd1 vccd1 vccd1 _0208_ sky130_fd_sc_hd__nand2_1
X_1078_ clknet_4_13_0_clk _0060_ vssd1 vssd1 vccd1 vccd1 mfcc.mel.filter_counter\[0\]
+ sky130_fd_sc_hd__dfxtp_1
XFILLER_0_1_42 vssd1 vssd1 vccd1 vccd1 sky130_ef_sc_hd__decap_12
X_1147_ clknet_4_5_0_clk _0102_ net11 vssd1 vssd1 vccd1 vccd1 conv2.addr\[9\] sky130_fd_sc_hd__dfrtp_1
XFILLER_0_15_142 vssd1 vssd1 vccd1 vccd1 sky130_fd_sc_hd__fill_1
XFILLER_0_15_175 vssd1 vssd1 vccd1 vccd1 sky130_fd_sc_hd__decap_4
Xhold22 mfcc.log.shift_count\[3\] vssd1 vssd1 vccd1 vccd1 net51 sky130_fd_sc_hd__dlygate4sd3_1
Xhold11 conv1.state\[5\] vssd1 vssd1 vccd1 vccd1 net40 sky130_fd_sc_hd__dlygate4sd3_1
XFILLER_0_30_189 vssd1 vssd1 vccd1 vccd1 sky130_fd_sc_hd__decap_6
Xhold44 mfcc.log.data_valid vssd1 vssd1 vccd1 vccd1 net73 sky130_fd_sc_hd__dlygate4sd3_1
Xhold99 maxpool.addr\[11\] vssd1 vssd1 vccd1 vccd1 net128 sky130_fd_sc_hd__dlygate4sd3_1