*SPEF "ieee 1481-1999"
*DESIGN "cnn_kws_accel"
*DATE "11:11:11 Fri 11 11, 1111"
*VENDOR "OpenRCX"
*PROGRAM "Parallel Extraction"
*VERSION "1.0"
*DESIGN_FLOW "NAME_SCOPE LOCAL" "PIN_CAP NONE"
*DIVIDER /
*DELIMITER :
*BUS_DELIMITER []
*T_UNIT 1 NS
*C_UNIT 1 PF
*R_UNIT 1 OHM
*L_UNIT 1 HENRY

*NAME_MAP
*1 audio_sample[0]
*2 audio_sample[10]
*3 audio_sample[11]
*4 audio_sample[12]
*5 audio_sample[13]
*6 audio_sample[14]
*7 audio_sample[15]
*8 audio_sample[1]
*9 audio_sample[2]
*10 audio_sample[3]
*11 audio_sample[4]
*12 audio_sample[5]
*13 audio_sample[6]
*14 audio_sample[7]
*15 audio_sample[8]
*16 audio_sample[9]
*17 clk
*18 done
*19 psram_ce_n
*20 psram_d[0]
*21 net23
*22 net24
*23 net25
*24 net29
*25 net26
*26 net27
*27 net28
*28 psram_sck
*29 rst_n
*30 sample_valid
*31 start
*34 _0000_
*35 _0001_
*36 _0002_
*37 _0003_
*38 _0004_
*39 _0005_
*40 _0006_
*41 _0007_
*42 _0008_
*43 _0009_
*44 _0010_
*45 _0011_
*46 _0012_
*47 _0013_
*48 _0014_
*49 _0015_
*50 _0016_
*51 _0017_
*52 _0018_
*53 _0019_
*54 _0020_
*55 _0021_
*56 _0022_
*57 _0023_
*58 _0024_
*59 _0025_
*60 _0026_
*61 _0027_
*62 _0028_
*63 _0029_
*64 _0030_
*65 _0031_
*66 _0032_
*67 _0033_
*68 _0034_
*69 _0035_
*70 _0036_
*71 _0037_
*72 _0038_
*73 _0039_
*74 _0040_
*75 _0041_
*76 _0042_
*77 _0043_
*78 _0044_
*79 _0045_
*80 _0046_
*81 _0047_
*82 _0048_
*83 _0049_
*84 _0050_
*85 _0051_
*86 _0052_
*87 _0053_
*88 _0054_
*89 _0055_
*90 _0056_
*91 _0057_
*92 _0058_
*93 _0059_
*94 _0060_
*95 _0061_
*96 _0062_
*97 _0063_
*98 _0064_
*99 _0065_
*100 _0066_
*101 _0067_
*102 _0068_
*103 _0069_
*104 _0070_
*105 _0071_
*106 _0072_
*107 _0073_
*108 _0074_
*109 _0075_
*110 _0076_
*111 _0077_
*112 _0078_
*113 _0079_
*114 _0080_
*115 _0081_
*116 _0082_
*117 _0083_
*118 _0084_
*119 _0085_
*120 _0086_
*121 _0087_
*122 _0088_
*123 _0089_
*124 _0090_
*125 _0091_
*126 _0092_
*127 _0093_
*128 _0094_
*129 _0095_
*130 _0096_
*131 _0097_
*132 _0098_
*133 _0099_
*134 _0100_
*135 _0101_
*136 _0102_
*137 _0103_
*138 _0104_
*139 _0105_
*140 _0106_
*141 _0107_
*142 _0108_
*143 _0109_
*144 _0110_
*145 _0111_
*146 _0112_
*147 _0113_
*148 _0114_
*149 _0115_
*150 _0116_
*151 _0117_
*152 _0118_
*153 _0119_
*154 _0120_
*155 _0121_
*156 _0122_
*157 _0123_
*158 _0124_
*159 _0125_
*160 _0126_
*161 _0127_
*162 _0128_
*163 _0129_
*164 _0130_
*165 _0131_
*166 _0132_
*167 _0133_
*168 _0134_
*169 _0135_
*170 _0136_
*171 _0137_
*172 _0138_
*173 _0139_
*174 _0140_
*175 _0141_
*176 _0142_
*177 _0143_
*178 _0144_
*179 _0145_
*180 _0146_
*181 _0147_
*182 _0148_
*183 _0149_
*184 _0150_
*185 _0151_
*186 _0152_
*187 _0153_
*188 _0154_
*189 _0155_
*190 _0156_
*191 _0157_
*192 _0158_
*193 _0159_
*194 _0160_
*195 _0161_
*196 _0162_
*197 _0163_
*198 _0164_
*199 _0165_
*200 _0166_
*201 _0167_
*202 _0168_
*203 _0169_
*204 _0170_
*205 _0171_
*206 _0172_
*207 _0173_
*208 _0174_
*209 _0175_
*210 _0176_
*211 _0177_
*212 _0178_
*213 _0179_
*214 _0180_
*215 _0181_
*216 _0182_
*217 _0183_
*218 _0184_
*219 _0185_
*220 _0186_
*221 _0187_
*222 _0188_
*223 _0189_
*224 _0190_
*225 _0191_
*226 _0192_
*227 _0193_
*228 _0194_
*229 _0195_
*230 _0196_
*231 _0197_
*232 _0198_
*233 _0199_
*234 _0200_
*235 _0201_
*236 _0202_
*237 _0203_
*238 _0204_
*239 _0205_
*240 _0206_
*241 _0207_
*242 _0208_
*243 _0209_
*244 _0210_
*245 _0211_
*246 _0212_
*247 _0213_
*248 _0214_
*249 _0215_
*250 _0216_
*251 _0217_
*252 _0218_
*253 _0219_
*254 _0220_
*255 _0221_
*256 _0222_
*257 _0223_
*258 _0224_
*259 _0225_
*260 _0226_
*261 _0227_
*262 _0228_
*263 _0229_
*264 _0230_
*265 _0231_
*266 _0232_
*267 _0233_
*268 _0234_
*269 _0235_
*270 _0236_
*271 _0237_
*272 _0238_
*273 _0239_
*274 _0240_
*275 _0241_
*276 _0242_
*277 _0243_
*278 _0244_
*279 _0245_
*280 _0246_
*281 _0247_
*282 _0248_
*283 _0249_
*284 _0250_
*285 _0251_
*286 _0252_
*287 _0253_
*288 _0254_
*289 _0255_
*290 _0256_
*291 _0257_
*292 _0258_
*293 _0259_
*294 _0260_
*295 _0261_
*296 _0262_
*297 _0263_
*298 _0264_
*299 _0265_
*300 _0266_
*301 _0267_
*302 _0268_
*303 _0269_
*304 _0270_
*305 _0271_
*306 _0272_
*307 _0273_
*308 _0274_
*309 _0275_
*310 _0276_
*311 _0277_
*312 _0278_
*313 _0279_
*314 _0280_
*315 _0281_
*316 _0282_
*317 _0283_
*318 _0284_
*319 _0285_
*320 _0286_
*321 _0287_
*322 _0288_
*323 _0289_
*324 _0290_
*325 _0291_
*326 _0292_
*327 _0293_
*328 _0294_
*329 _0295_
*330 _0296_
*331 _0297_
*332 _0298_
*333 _0299_
*334 _0300_
*335 _0301_
*336 _0302_
*337 _0303_
*338 _0304_
*339 _0305_
*340 _0306_
*341 _0307_
*342 _0308_
*343 _0309_
*344 _0310_
*345 _0311_
*346 _0312_
*347 _0313_
*348 _0314_
*349 _0315_
*350 _0316_
*351 _0317_
*352 _0318_
*353 _0319_
*354 _0320_
*355 _0321_
*356 _0322_
*357 _0323_
*358 _0324_
*359 _0325_
*360 _0326_
*361 _0327_
*362 _0328_
*363 _0329_
*364 _0330_
*365 _0331_
*366 _0332_
*367 _0333_
*368 _0334_
*369 _0335_
*370 _0336_
*371 _0337_
*372 _0338_
*373 _0339_
*374 _0340_
*375 _0341_
*376 _0342_
*377 _0343_
*378 _0344_
*379 _0345_
*380 _0346_
*381 _0347_
*382 _0348_
*383 _0349_
*384 _0350_
*385 _0351_
*386 _0352_
*387 _0353_
*388 _0354_
*389 _0355_
*390 _0356_
*391 _0357_
*392 _0358_
*393 _0359_
*394 _0360_
*395 _0361_
*396 _0362_
*397 _0363_
*398 _0364_
*399 _0365_
*400 _0366_
*401 _0367_
*402 _0368_
*403 _0369_
*404 _0370_
*405 _0371_
*406 _0372_
*407 _0373_
*408 _0374_
*409 _0375_
*410 _0376_
*411 _0377_
*412 _0378_
*413 _0379_
*414 _0380_
*415 _0381_
*416 _0382_
*417 _0383_
*418 _0384_
*419 _0385_
*420 _0386_
*421 _0387_
*422 _0388_
*423 _0389_
*424 _0390_
*425 _0391_
*426 _0392_
*427 _0393_
*428 _0394_
*429 _0395_
*430 _0396_
*431 _0397_
*432 _0398_
*433 _0399_
*434 _0400_
*435 _0401_
*436 _0402_
*437 _0403_
*438 _0404_
*439 _0405_
*440 _0406_
*441 _0407_
*442 _0408_
*443 _0409_
*444 _0410_
*445 _0411_
*446 _0412_
*447 _0413_
*448 _0414_
*449 _0415_
*450 _0416_
*451 _0417_
*452 _0418_
*453 _0419_
*454 _0420_
*455 _0421_
*456 _0422_
*457 _0423_
*458 _0424_
*459 _0425_
*460 _0426_
*461 _0427_
*462 _0428_
*463 _0429_
*464 _0430_
*465 _0431_
*466 _0432_
*467 _0433_
*468 _0434_
*469 _0435_
*470 _0436_
*471 _0437_
*472 _0438_
*473 _0439_
*474 _0440_
*475 _0441_
*476 _0442_
*477 _0443_
*478 _0444_
*479 _0445_
*480 _0446_
*481 _0447_
*482 _0448_
*483 _0449_
*484 _0450_
*485 _0451_
*486 _0452_
*487 _0453_
*488 _0454_
*489 _0455_
*490 _0456_
*491 _0457_
*492 _0458_
*493 _0459_
*494 _0460_
*495 _0461_
*496 _0462_
*497 _0463_
*498 _0464_
*499 _0465_
*500 _0466_
*501 _0467_
*502 _0468_
*503 _0469_
*504 _0470_
*505 _0471_
*506 _0472_
*507 _0473_
*508 _0474_
*509 _0475_
*510 _0476_
*511 _0477_
*512 _0478_
*513 _0479_
*514 _0480_
*515 _0481_
*516 _0482_
*517 _0483_
*518 _0484_
*519 _0485_
*520 _0486_
*521 _0487_
*522 _0488_
*523 _0489_
*524 _0490_
*525 _0491_
*526 _0492_
*527 _0493_
*528 _0494_
*529 _0495_
*530 _0496_
*531 _0497_
*532 _0498_
*533 _0499_
*534 _0500_
*535 _0501_
*536 _0502_
*537 _0503_
*538 _0504_
*539 _0505_
*540 _0506_
*541 _0507_
*542 _0508_
*543 _0509_
*544 _0510_
*545 _0511_
*546 _0512_
*547 _0513_
*548 _0514_
*549 _0515_
*550 _0516_
*551 _0517_
*552 _0518_
*553 _0519_
*554 _0520_
*555 clknet_0_clk
*556 clknet_4_0_0_clk
*557 clknet_4_10_0_clk
*558 clknet_4_11_0_clk
*559 clknet_4_12_0_clk
*560 clknet_4_13_0_clk
*561 clknet_4_14_0_clk
*562 clknet_4_15_0_clk
*563 clknet_4_1_0_clk
*564 clknet_4_2_0_clk
*565 clknet_4_3_0_clk
*566 clknet_4_4_0_clk
*567 clknet_4_5_0_clk
*568 clknet_4_6_0_clk
*569 clknet_4_7_0_clk
*570 clknet_4_8_0_clk
*571 clknet_4_9_0_clk
*572 conv1\.addr\[8\]
*573 conv1\.done
*574 conv1\.psram_ce_n
*575 conv1\.psram_ctrl\.counter\[0\]
*576 conv1\.psram_ctrl\.counter\[1\]
*577 conv1\.psram_ctrl\.counter\[2\]
*578 conv1\.psram_ctrl\.counter\[3\]
*579 conv1\.psram_ctrl\.counter\[4\]
*580 conv1\.psram_ctrl\.counter\[5\]
*581 conv1\.psram_ctrl\.counter\[6\]
*582 conv1\.psram_ctrl\.counter\[7\]
*583 conv1\.psram_ctrl\.has_wait_states
*584 conv1\.psram_ctrl\.nstate
*585 conv1\.psram_ctrl\.sck
*586 conv1\.psram_ctrl\.start
*587 conv1\.psram_ctrl\.state
*588 conv1\.state\[0\]
*589 conv1\.state\[1\]
*590 conv1\.state\[2\]
*591 conv1\.state\[3\]
*592 conv1\.state\[5\]
*593 conv2\.addr\[8\]
*594 conv2\.addr\[9\]
*595 conv2\.data_out_valid
*596 conv2\.psram_ce_n
*597 conv2\.psram_ctrl\.counter\[0\]
*598 conv2\.psram_ctrl\.counter\[1\]
*599 conv2\.psram_ctrl\.counter\[2\]
*600 conv2\.psram_ctrl\.counter\[3\]
*601 conv2\.psram_ctrl\.counter\[4\]
*602 conv2\.psram_ctrl\.counter\[5\]
*603 conv2\.psram_ctrl\.counter\[6\]
*604 conv2\.psram_ctrl\.counter\[7\]
*605 conv2\.psram_ctrl\.has_wait_states
*606 conv2\.psram_ctrl\.nstate
*607 conv2\.psram_ctrl\.sck
*608 conv2\.psram_ctrl\.start
*609 conv2\.psram_ctrl\.state
*610 conv2\.state\[0\]
*611 conv2\.state\[1\]
*612 conv2\.state\[2\]
*613 conv2\.state\[3\]
*614 conv2\.state\[5\]
*615 fc1\.addr\[10\]
*616 fc1\.addr\[8\]
*617 fc1\.data_out_valid
*618 fc1\.psram_ce_n
*619 fc1\.psram_ctrl\.counter\[0\]
*620 fc1\.psram_ctrl\.counter\[1\]
*621 fc1\.psram_ctrl\.counter\[2\]
*622 fc1\.psram_ctrl\.counter\[3\]
*623 fc1\.psram_ctrl\.counter\[4\]
*624 fc1\.psram_ctrl\.counter\[5\]
*625 fc1\.psram_ctrl\.counter\[6\]
*626 fc1\.psram_ctrl\.counter\[7\]
*627 fc1\.psram_ctrl\.has_wait_states
*628 fc1\.psram_ctrl\.nstate
*629 fc1\.psram_ctrl\.sck
*630 fc1\.psram_ctrl\.start
*631 fc1\.psram_ctrl\.state
*632 fc1\.state\[0\]
*633 fc1\.state\[1\]
*634 fc1\.state\[2\]
*635 fc1\.state\[3\]
*636 fc1\.state\[5\]
*637 fc2\.addr\[10\]
*638 fc2\.addr\[8\]
*639 fc2\.done
*640 fc2\.psram_ce_n
*641 fc2\.psram_ctrl\.counter\[0\]
*642 fc2\.psram_ctrl\.counter\[1\]
*643 fc2\.psram_ctrl\.counter\[2\]
*644 fc2\.psram_ctrl\.counter\[3\]
*645 fc2\.psram_ctrl\.counter\[4\]
*646 fc2\.psram_ctrl\.counter\[5\]
*647 fc2\.psram_ctrl\.counter\[6\]
*648 fc2\.psram_ctrl\.counter\[7\]
*649 fc2\.psram_ctrl\.has_wait_states
*650 fc2\.psram_ctrl\.nstate
*651 fc2\.psram_ctrl\.sck
*652 fc2\.psram_ctrl\.start
*653 fc2\.psram_ctrl\.state
*654 fc2\.state\[0\]
*655 fc2\.state\[1\]
*656 fc2\.state\[2\]
*657 fc2\.state\[3\]
*658 fc2\.state\[5\]
*659 maxpool\.addr\[11\]
*660 maxpool\.addr\[8\]
*661 maxpool\.psram_ce_n
*662 maxpool\.psram_ctrl\.counter\[0\]
*663 maxpool\.psram_ctrl\.counter\[1\]
*664 maxpool\.psram_ctrl\.counter\[2\]
*665 maxpool\.psram_ctrl\.counter\[3\]
*666 maxpool\.psram_ctrl\.counter\[4\]
*667 maxpool\.psram_ctrl\.counter\[5\]
*668 maxpool\.psram_ctrl\.counter\[6\]
*669 maxpool\.psram_ctrl\.counter\[7\]
*670 maxpool\.psram_ctrl\.nstate
*671 maxpool\.psram_ctrl\.sck
*672 maxpool\.psram_ctrl\.start
*673 maxpool\.psram_ctrl\.state
*674 maxpool\.state\[0\]
*675 maxpool\.state\[1\]
*676 maxpool\.state\[2\]
*677 mfcc\.dct\.data_valid
*678 mfcc\.dct\.dct_valid
*679 mfcc\.dct\.input_counter\[0\]
*680 mfcc\.dct\.input_counter\[1\]
*681 mfcc\.dct\.input_counter\[2\]
*682 mfcc\.dct\.input_counter\[3\]
*683 mfcc\.dct\.input_counter\[4\]
*684 mfcc\.dct\.output_counter\[0\]
*685 mfcc\.dct\.output_counter\[1\]
*686 mfcc\.dct\.output_counter\[2\]
*687 mfcc\.dct\.output_counter\[3\]
*688 mfcc\.dct\.output_counter\[4\]
*689 mfcc\.dct\.output_counter\[5\]
*690 mfcc\.dct\.state\[0\]
*691 mfcc\.dct\.state\[1\]
*692 mfcc\.log\.data_valid
*693 mfcc\.log\.shift_count\[0\]
*694 mfcc\.log\.shift_count\[1\]
*695 mfcc\.log\.shift_count\[2\]
*696 mfcc\.log\.shift_count\[3\]
*697 mfcc\.log\.state\[0\]
*698 mfcc\.log\.state\[1\]
*699 mfcc\.log\.state\[2\]
*700 mfcc\.mel\.coeff_counter\[0\]
*701 mfcc\.mel\.coeff_counter\[1\]
*702 mfcc\.mel\.coeff_counter\[2\]
*703 mfcc\.mel\.coeff_counter\[3\]
*704 mfcc\.mel\.coeff_counter\[4\]
*705 mfcc\.mel\.filter_counter\[0\]
*706 mfcc\.mel\.filter_counter\[1\]
*707 mfcc\.mel\.filter_counter\[2\]
*708 mfcc\.mel\.filter_counter\[3\]
*709 mfcc\.mel\.filter_counter\[4\]
*710 mfcc\.mel\.filter_counter\[5\]
*711 mfcc\.mel\.state\[0\]
*712 mfcc\.mel\.state\[1\]
*713 mfcc\.mfcc_valid
*714 net1
*715 net10
*716 net100
*717 net101
*718 net102
*719 net103
*720 net104
*721 net105
*722 net106
*723 net107
*724 net108
*725 net109
*726 net11
*727 net110
*728 net111
*729 net112
*730 net113
*731 net114
*732 net115
*733 net116
*734 net117
*735 net118
*736 net119
*737 net12
*738 net120
*739 net121
*740 net122
*741 net123
*742 net124
*743 net125
*744 net126
*745 net127
*746 net128
*747 net129
*748 net13
*749 net130
*750 net131
*751 net132
*752 net133
*753 net134
*754 net135
*755 net136
*756 net137
*757 net138
*758 net139
*759 net14
*760 net140
*761 net141
*762 net142
*763 net143
*764 net144
*765 net145
*766 net146
*767 net147
*768 net148
*769 net149
*770 net15
*771 net150
*772 net151
*773 net152
*774 net153
*775 net154
*776 net155
*777 net156
*778 net157
*779 net158
*780 net159
*781 net16
*782 net160
*783 net161
*784 net162
*785 net163
*786 net164
*787 net165
*788 net166
*789 net167
*790 net168
*791 net17
*792 net18
*793 net19
*794 net2
*795 net20
*796 net21
*797 net22
*798 net3
*799 net30
*800 net31
*801 net32
*802 net33
*803 net34
*804 net35
*805 net36
*806 net37
*807 net38
*808 net39
*809 net4
*810 net40
*811 net41
*812 net42
*813 net43
*814 net44
*815 net45
*816 net46
*817 net47
*818 net48
*819 net49
*820 net5
*821 net50
*822 net51
*823 net52
*824 net53
*825 net54
*826 net55
*827 net56
*828 net57
*829 net58
*830 net59
*831 net6
*832 net60
*833 net61
*834 net62
*835 net63
*836 net64
*837 net65
*838 net66
*839 net67
*840 net68
*841 net69
*842 net7
*843 net70
*844 net71
*845 net72
*846 net73
*847 net74
*848 net75
*849 net76
*850 net77
*851 net78
*852 net79
*853 net8
*854 net80
*855 net81
*856 net82
*857 net83
*858 net84
*859 net85
*860 net86
*861 net87
*862 net88
*863 net89
*864 net9
*865 net90
*866 net91
*867 net92
*868 net93
*869 net94
*870 net95
*871 net96
*872 net97
*873 net98
*874 net99
*875 softmax\.addr\[11\]
*876 softmax\.addr\[8\]
*877 softmax\.data_valid
*878 softmax\.psram_ce_n
*879 softmax\.psram_ctrl\.counter\[0\]
*880 softmax\.psram_ctrl\.counter\[1\]
*881 softmax\.psram_ctrl\.counter\[2\]
*882 softmax\.psram_ctrl\.counter\[3\]
*883 softmax\.psram_ctrl\.counter\[4\]
*884 softmax\.psram_ctrl\.counter\[5\]
*885 softmax\.psram_ctrl\.counter\[6\]
*886 softmax\.psram_ctrl\.counter\[7\]
*887 softmax\.psram_ctrl\.nstate
*888 softmax\.psram_ctrl\.sck
*889 softmax\.psram_ctrl\.start
*890 softmax\.psram_ctrl\.state
*891 state\[0\]
*892 state\[1\]
*893 state\[2\]
*894 FILLER_0_0_104
*895 FILLER_0_0_113
*896 FILLER_0_0_125
*897 FILLER_0_0_137
*898 FILLER_0_0_147
*899 FILLER_0_0_15
*900 FILLER_0_0_159
*901 FILLER_0_0_167
*902 FILLER_0_0_169
*903 FILLER_0_0_181
*904 FILLER_0_0_197
*905 FILLER_0_0_209
*906 FILLER_0_0_221
*907 FILLER_0_0_225
*908 FILLER_0_0_237
*909 FILLER_0_0_249
*910 FILLER_0_0_253
*911 FILLER_0_0_265
*912 FILLER_0_0_27
*913 FILLER_0_0_29
*914 FILLER_0_0_3
*915 FILLER_0_0_41
*916 FILLER_0_0_53
*917 FILLER_0_0_57
*918 FILLER_0_0_69
*919 FILLER_0_0_81
*920 FILLER_0_0_85
*921 FILLER_0_0_95
*922 FILLER_0_10_105
*923 FILLER_0_10_118
*924 FILLER_0_10_130
*925 FILLER_0_10_138
*926 FILLER_0_10_141
*927 FILLER_0_10_177
*928 FILLER_0_10_189
*929 FILLER_0_10_195
*930 FILLER_0_10_202
*931 FILLER_0_10_243
*932 FILLER_0_10_251
*933 FILLER_0_10_253
*934 FILLER_0_10_265
*935 FILLER_0_10_3
*936 FILLER_0_10_7
*937 FILLER_0_10_85
*938 FILLER_0_11_102
*939 FILLER_0_11_113
*940 FILLER_0_11_133
*941 FILLER_0_11_145
*942 FILLER_0_11_149
*943 FILLER_0_11_157
*944 FILLER_0_11_166
*945 FILLER_0_11_177
*946 FILLER_0_11_189
*947 FILLER_0_11_201
*948 FILLER_0_11_206
*949 FILLER_0_11_212
*950 FILLER_0_11_217
*951 FILLER_0_11_223
*952 FILLER_0_11_23
*953 FILLER_0_11_233
*954 FILLER_0_11_268
*955 FILLER_0_11_272
*956 FILLER_0_11_43
*957 FILLER_0_11_94
*958 FILLER_0_12_107
*959 FILLER_0_12_134
*960 FILLER_0_12_15
*961 FILLER_0_12_150
*962 FILLER_0_12_165
*963 FILLER_0_12_177
*964 FILLER_0_12_19
*965 FILLER_0_12_195
*966 FILLER_0_12_197
*967 FILLER_0_12_230
*968 FILLER_0_12_250
*969 FILLER_0_12_3
*970 FILLER_0_12_41
*971 FILLER_0_12_53
*972 FILLER_0_12_68
*973 FILLER_0_13_141
*974 FILLER_0_13_15
*975 FILLER_0_13_153
*976 FILLER_0_13_164
*977 FILLER_0_13_169
*978 FILLER_0_13_177
*979 FILLER_0_13_202
*980 FILLER_0_13_223
*981 FILLER_0_13_23
*982 FILLER_0_13_230
*983 FILLER_0_13_271
*984 FILLER_0_13_3
*985 FILLER_0_13_46
*986 FILLER_0_13_54
*987 FILLER_0_13_57
*988 FILLER_0_13_65
*989 FILLER_0_13_73
*990 FILLER_0_13_98
*991 FILLER_0_14_133
*992 FILLER_0_14_139
*993 FILLER_0_14_141
*994 FILLER_0_14_149
*995 FILLER_0_14_156
*996 FILLER_0_14_163
*997 FILLER_0_14_172
*998 FILLER_0_14_184
*999 FILLER_0_14_194
*1000 FILLER_0_14_208
*1001 FILLER_0_14_214
*1002 FILLER_0_14_24
*1003 FILLER_0_14_246
*1004 FILLER_0_14_259
*1005 FILLER_0_14_266
*1006 FILLER_0_14_272
*1007 FILLER_0_14_29
*1008 FILLER_0_14_3
*1009 FILLER_0_14_39
*1010 FILLER_0_14_61
*1011 FILLER_0_14_76
*1012 FILLER_0_14_85
*1013 FILLER_0_14_89
*1014 FILLER_0_15_104
*1015 FILLER_0_15_110
*1016 FILLER_0_15_113
*1017 FILLER_0_15_119
*1018 FILLER_0_15_124
*1019 FILLER_0_15_136
*1020 FILLER_0_15_14
*1021 FILLER_0_15_142
*1022 FILLER_0_15_167
*1023 FILLER_0_15_175
*1024 FILLER_0_15_212
*1025 FILLER_0_15_236
*1026 FILLER_0_15_248
*1027 FILLER_0_15_25
*1028 FILLER_0_15_260
*1029 FILLER_0_15_272
*1030 FILLER_0_15_3
*1031 FILLER_0_15_31
*1032 FILLER_0_15_62
*1033 FILLER_0_15_72
*1034 FILLER_0_15_96
*1035 FILLER_0_16_106
*1036 FILLER_0_16_118
*1037 FILLER_0_16_130
*1038 FILLER_0_16_138
*1039 FILLER_0_16_141
*1040 FILLER_0_16_170
*1041 FILLER_0_16_183
*1042 FILLER_0_16_192
*1043 FILLER_0_16_220
*1044 FILLER_0_16_234
*1045 FILLER_0_16_246
*1046 FILLER_0_16_253
*1047 FILLER_0_16_265
*1048 FILLER_0_16_34
*1049 FILLER_0_16_41
*1050 FILLER_0_16_54
*1051 FILLER_0_16_60
*1052 FILLER_0_16_72
*1053 FILLER_0_16_94
*1054 FILLER_0_17_111
*1055 FILLER_0_17_113
*1056 FILLER_0_17_125
*1057 FILLER_0_17_130
*1058 FILLER_0_17_15
*1059 FILLER_0_17_164
*1060 FILLER_0_17_169
*1061 FILLER_0_17_177
*1062 FILLER_0_17_205
*1063 FILLER_0_17_215
*1064 FILLER_0_17_219
*1065 FILLER_0_17_223
*1066 FILLER_0_17_225
*1067 FILLER_0_17_233
*1068 FILLER_0_17_254
*1069 FILLER_0_17_266
*1070 FILLER_0_17_272
*1071 FILLER_0_17_3
*1072 FILLER_0_17_43
*1073 FILLER_0_17_54
*1074 FILLER_0_17_57
*1075 FILLER_0_17_81
*1076 FILLER_0_18_117
*1077 FILLER_0_18_132
*1078 FILLER_0_18_141
*1079 FILLER_0_18_145
*1080 FILLER_0_18_15
*1081 FILLER_0_18_153
*1082 FILLER_0_18_165
*1083 FILLER_0_18_177
*1084 FILLER_0_18_189
*1085 FILLER_0_18_195
*1086 FILLER_0_18_205
*1087 FILLER_0_18_27
*1088 FILLER_0_18_29
*1089 FILLER_0_18_3
*1090 FILLER_0_18_33
*1091 FILLER_0_18_66
*1092 FILLER_0_18_78
*1093 FILLER_0_18_83
*1094 FILLER_0_18_85
*1095 FILLER_0_19_109
*1096 FILLER_0_19_11
*1097 FILLER_0_19_113
*1098 FILLER_0_19_134
*1099 FILLER_0_19_157
*1100 FILLER_0_19_165
*1101 FILLER_0_19_169
*1102 FILLER_0_19_191
*1103 FILLER_0_19_203
*1104 FILLER_0_19_229
*1105 FILLER_0_19_237
*1106 FILLER_0_19_261
*1107 FILLER_0_19_28
*1108 FILLER_0_19_3
*1109 FILLER_0_19_32
*1110 FILLER_0_19_53
*1111 FILLER_0_19_63
*1112 FILLER_0_19_69
*1113 FILLER_0_19_78
*1114 FILLER_0_19_84
*1115 FILLER_0_19_88
*1116 FILLER_0_1_106
*1117 FILLER_0_1_14
*1118 FILLER_0_1_145
*1119 FILLER_0_1_155
*1120 FILLER_0_1_159
*1121 FILLER_0_1_163
*1122 FILLER_0_1_167
*1123 FILLER_0_1_177
*1124 FILLER_0_1_189
*1125 FILLER_0_1_210
*1126 FILLER_0_1_218
*1127 FILLER_0_1_222
*1128 FILLER_0_1_225
*1129 FILLER_0_1_252
*1130 FILLER_0_1_264
*1131 FILLER_0_1_272
*1132 FILLER_0_1_3
*1133 FILLER_0_1_38
*1134 FILLER_0_1_42
*1135 FILLER_0_1_54
*1136 FILLER_0_20_101
*1137 FILLER_0_20_141
*1138 FILLER_0_20_145
*1139 FILLER_0_20_157
*1140 FILLER_0_20_195
*1141 FILLER_0_20_204
*1142 FILLER_0_20_208
*1143 FILLER_0_20_212
*1144 FILLER_0_20_218
*1145 FILLER_0_20_230
*1146 FILLER_0_20_238
*1147 FILLER_0_20_244
*1148 FILLER_0_20_37
*1149 FILLER_0_20_67
*1150 FILLER_0_20_82
*1151 FILLER_0_21_108
*1152 FILLER_0_21_11
*1153 FILLER_0_21_116
*1154 FILLER_0_21_177
*1155 FILLER_0_21_199
*1156 FILLER_0_21_223
*1157 FILLER_0_21_225
*1158 FILLER_0_21_232
*1159 FILLER_0_21_245
*1160 FILLER_0_21_252
*1161 FILLER_0_21_261
*1162 FILLER_0_21_28
*1163 FILLER_0_21_3
*1164 FILLER_0_21_36
*1165 FILLER_0_21_55
*1166 FILLER_0_21_57
*1167 FILLER_0_21_65
*1168 FILLER_0_21_86
*1169 FILLER_0_22_104
*1170 FILLER_0_22_116
*1171 FILLER_0_22_139
*1172 FILLER_0_22_141
*1173 FILLER_0_22_145
*1174 FILLER_0_22_151
*1175 FILLER_0_22_165
*1176 FILLER_0_22_194
*1177 FILLER_0_22_200
*1178 FILLER_0_22_206
*1179 FILLER_0_22_251
*1180 FILLER_0_22_267
*1181 FILLER_0_22_29
*1182 FILLER_0_22_3
*1183 FILLER_0_22_41
*1184 FILLER_0_22_45
*1185 FILLER_0_22_49
*1186 FILLER_0_22_69
*1187 FILLER_0_23_105
*1188 FILLER_0_23_109
*1189 FILLER_0_23_125
*1190 FILLER_0_23_137
*1191 FILLER_0_23_158
*1192 FILLER_0_23_166
*1193 FILLER_0_23_169
*1194 FILLER_0_23_173
*1195 FILLER_0_23_194
*1196 FILLER_0_23_221
*1197 FILLER_0_23_225
*1198 FILLER_0_23_245
*1199 FILLER_0_23_28
*1200 FILLER_0_23_3
*1201 FILLER_0_23_40
*1202 FILLER_0_23_52
*1203 FILLER_0_23_57
*1204 FILLER_0_23_61
*1205 FILLER_0_23_67
*1206 FILLER_0_24_10
*1207 FILLER_0_24_135
*1208 FILLER_0_24_14
*1209 FILLER_0_24_161
*1210 FILLER_0_24_167
*1211 FILLER_0_24_171
*1212 FILLER_0_24_181
*1213 FILLER_0_24_194
*1214 FILLER_0_24_223
*1215 FILLER_0_24_236
*1216 FILLER_0_24_248
*1217 FILLER_0_24_253
*1218 FILLER_0_24_260
*1219 FILLER_0_24_272
*1220 FILLER_0_24_29
*1221 FILLER_0_24_50
*1222 FILLER_0_24_54
*1223 FILLER_0_24_6
*1224 FILLER_0_24_81
*1225 FILLER_0_25_113
*1226 FILLER_0_25_117
*1227 FILLER_0_25_126
*1228 FILLER_0_25_167
*1229 FILLER_0_25_208
*1230 FILLER_0_25_220
*1231 FILLER_0_25_225
*1232 FILLER_0_25_237
*1233 FILLER_0_25_242
*1234 FILLER_0_25_28
*1235 FILLER_0_25_3
*1236 FILLER_0_25_54
*1237 FILLER_0_25_91
*1238 FILLER_0_26_130
*1239 FILLER_0_26_15
*1240 FILLER_0_26_161
*1241 FILLER_0_26_184
*1242 FILLER_0_26_210
*1243 FILLER_0_26_224
*1244 FILLER_0_26_233
*1245 FILLER_0_26_26
*1246 FILLER_0_26_272
*1247 FILLER_0_26_29
*1248 FILLER_0_26_3
*1249 FILLER_0_26_79
*1250 FILLER_0_26_83
*1251 FILLER_0_26_93
*1252 FILLER_0_27_102
*1253 FILLER_0_27_11
*1254 FILLER_0_27_111
*1255 FILLER_0_27_116
*1256 FILLER_0_27_127
*1257 FILLER_0_27_135
*1258 FILLER_0_27_143
*1259 FILLER_0_27_167
*1260 FILLER_0_27_189
*1261 FILLER_0_27_222
*1262 FILLER_0_27_225
*1263 FILLER_0_27_240
*1264 FILLER_0_27_262
*1265 FILLER_0_27_271
*1266 FILLER_0_27_3
*1267 FILLER_0_27_42
*1268 FILLER_0_27_57
*1269 FILLER_0_27_66
*1270 FILLER_0_27_78
*1271 FILLER_0_27_90
*1272 FILLER_0_28_128
*1273 FILLER_0_28_141
*1274 FILLER_0_28_15
*1275 FILLER_0_28_151
*1276 FILLER_0_28_163
*1277 FILLER_0_28_175
*1278 FILLER_0_28_192
*1279 FILLER_0_28_205
*1280 FILLER_0_28_27
*1281 FILLER_0_28_29
*1282 FILLER_0_28_3
*1283 FILLER_0_28_41
*1284 FILLER_0_28_60
*1285 FILLER_0_28_72
*1286 FILLER_0_28_82
*1287 FILLER_0_28_88
*1288 FILLER_0_28_94
*1289 FILLER_0_28_99
*1290 FILLER_0_29_123
*1291 FILLER_0_29_14
*1292 FILLER_0_29_141
*1293 FILLER_0_29_156
*1294 FILLER_0_29_169
*1295 FILLER_0_29_181
*1296 FILLER_0_29_193
*1297 FILLER_0_29_216
*1298 FILLER_0_29_225
*1299 FILLER_0_29_26
*1300 FILLER_0_29_262
*1301 FILLER_0_29_270
*1302 FILLER_0_29_3
*1303 FILLER_0_29_38
*1304 FILLER_0_29_50
*1305 FILLER_0_2_103
*1306 FILLER_0_2_174
*1307 FILLER_0_2_206
*1308 FILLER_0_2_235
*1309 FILLER_0_2_243
*1310 FILLER_0_2_25
*1311 FILLER_0_2_268
*1312 FILLER_0_2_272
*1313 FILLER_0_2_29
*1314 FILLER_0_2_3
*1315 FILLER_0_2_60
*1316 FILLER_0_2_85
*1317 FILLER_0_30_113
*1318 FILLER_0_30_117
*1319 FILLER_0_30_15
*1320 FILLER_0_30_165
*1321 FILLER_0_30_189
*1322 FILLER_0_30_195
*1323 FILLER_0_30_197
*1324 FILLER_0_30_211
*1325 FILLER_0_30_223
*1326 FILLER_0_30_235
*1327 FILLER_0_30_239
*1328 FILLER_0_30_251
*1329 FILLER_0_30_253
*1330 FILLER_0_30_265
*1331 FILLER_0_30_27
*1332 FILLER_0_30_29
*1333 FILLER_0_30_3
*1334 FILLER_0_30_41
*1335 FILLER_0_30_53
*1336 FILLER_0_30_83
*1337 FILLER_0_30_85
*1338 FILLER_0_31_105
*1339 FILLER_0_31_124
*1340 FILLER_0_31_165
*1341 FILLER_0_31_169
*1342 FILLER_0_31_199
*1343 FILLER_0_31_21
*1344 FILLER_0_31_220
*1345 FILLER_0_31_225
*1346 FILLER_0_31_231
*1347 FILLER_0_31_236
*1348 FILLER_0_31_248
*1349 FILLER_0_31_260
*1350 FILLER_0_31_272
*1351 FILLER_0_31_33
*1352 FILLER_0_31_45
*1353 FILLER_0_31_53
*1354 FILLER_0_31_60
*1355 FILLER_0_31_9
*1356 FILLER_0_31_91
*1357 FILLER_0_32_106
*1358 FILLER_0_32_137
*1359 FILLER_0_32_141
*1360 FILLER_0_32_15
*1361 FILLER_0_32_171
*1362 FILLER_0_32_193
*1363 FILLER_0_32_197
*1364 FILLER_0_32_225
*1365 FILLER_0_32_245
*1366 FILLER_0_32_251
*1367 FILLER_0_32_253
*1368 FILLER_0_32_265
*1369 FILLER_0_32_27
*1370 FILLER_0_32_29
*1371 FILLER_0_32_3
*1372 FILLER_0_32_41
*1373 FILLER_0_32_53
*1374 FILLER_0_32_65
*1375 FILLER_0_32_82
*1376 FILLER_0_32_94
*1377 FILLER_0_33_106
*1378 FILLER_0_33_122
*1379 FILLER_0_33_128
*1380 FILLER_0_33_141
*1381 FILLER_0_33_149
*1382 FILLER_0_33_15
*1383 FILLER_0_33_160
*1384 FILLER_0_33_173
*1385 FILLER_0_33_198
*1386 FILLER_0_33_206
*1387 FILLER_0_33_218
*1388 FILLER_0_33_262
*1389 FILLER_0_33_27
*1390 FILLER_0_33_270
*1391 FILLER_0_33_3
*1392 FILLER_0_33_39
*1393 FILLER_0_33_51
*1394 FILLER_0_33_55
*1395 FILLER_0_33_57
*1396 FILLER_0_33_65
*1397 FILLER_0_34_101
*1398 FILLER_0_34_128
*1399 FILLER_0_34_141
*1400 FILLER_0_34_15
*1401 FILLER_0_34_153
*1402 FILLER_0_34_166
*1403 FILLER_0_34_183
*1404 FILLER_0_34_191
*1405 FILLER_0_34_195
*1406 FILLER_0_34_197
*1407 FILLER_0_34_209
*1408 FILLER_0_34_217
*1409 FILLER_0_34_248
*1410 FILLER_0_34_269
*1411 FILLER_0_34_27
*1412 FILLER_0_34_29
*1413 FILLER_0_34_3
*1414 FILLER_0_34_41
*1415 FILLER_0_34_53
*1416 FILLER_0_34_65
*1417 FILLER_0_34_73
*1418 FILLER_0_35_103
*1419 FILLER_0_35_111
*1420 FILLER_0_35_113
*1421 FILLER_0_35_119
*1422 FILLER_0_35_123
*1423 FILLER_0_35_135
*1424 FILLER_0_35_143
*1425 FILLER_0_35_15
*1426 FILLER_0_35_164
*1427 FILLER_0_35_172
*1428 FILLER_0_35_191
*1429 FILLER_0_35_203
*1430 FILLER_0_35_210
*1431 FILLER_0_35_218
*1432 FILLER_0_35_223
*1433 FILLER_0_35_237
*1434 FILLER_0_35_254
*1435 FILLER_0_35_27
*1436 FILLER_0_35_270
*1437 FILLER_0_35_3
*1438 FILLER_0_35_39
*1439 FILLER_0_35_51
*1440 FILLER_0_35_55
*1441 FILLER_0_35_57
*1442 FILLER_0_35_69
*1443 FILLER_0_35_91
*1444 FILLER_0_36_103
*1445 FILLER_0_36_111
*1446 FILLER_0_36_138
*1447 FILLER_0_36_147
*1448 FILLER_0_36_15
*1449 FILLER_0_36_169
*1450 FILLER_0_36_195
*1451 FILLER_0_36_197
*1452 FILLER_0_36_231
*1453 FILLER_0_36_240
*1454 FILLER_0_36_246
*1455 FILLER_0_36_250
*1456 FILLER_0_36_259
*1457 FILLER_0_36_27
*1458 FILLER_0_36_270
*1459 FILLER_0_36_29
*1460 FILLER_0_36_3
*1461 FILLER_0_36_41
*1462 FILLER_0_36_53
*1463 FILLER_0_36_65
*1464 FILLER_0_36_77
*1465 FILLER_0_36_83
*1466 FILLER_0_36_85
*1467 FILLER_0_36_91
*1468 FILLER_0_37_105
*1469 FILLER_0_37_113
*1470 FILLER_0_37_15
*1471 FILLER_0_37_162
*1472 FILLER_0_37_169
*1473 FILLER_0_37_223
*1474 FILLER_0_37_27
*1475 FILLER_0_37_271
*1476 FILLER_0_37_3
*1477 FILLER_0_37_39
*1478 FILLER_0_37_51
*1479 FILLER_0_37_55
*1480 FILLER_0_37_57
*1481 FILLER_0_37_69
*1482 FILLER_0_38_108
*1483 FILLER_0_38_116
*1484 FILLER_0_38_126
*1485 FILLER_0_38_139
*1486 FILLER_0_38_147
*1487 FILLER_0_38_15
*1488 FILLER_0_38_159
*1489 FILLER_0_38_169
*1490 FILLER_0_38_175
*1491 FILLER_0_38_180
*1492 FILLER_0_38_191
*1493 FILLER_0_38_195
*1494 FILLER_0_38_205
*1495 FILLER_0_38_250
*1496 FILLER_0_38_264
*1497 FILLER_0_38_27
*1498 FILLER_0_38_272
*1499 FILLER_0_38_29
*1500 FILLER_0_38_3
*1501 FILLER_0_38_41
*1502 FILLER_0_38_53
*1503 FILLER_0_38_65
*1504 FILLER_0_38_77
*1505 FILLER_0_38_83
*1506 FILLER_0_38_85
*1507 FILLER_0_39_101
*1508 FILLER_0_39_109
*1509 FILLER_0_39_113
*1510 FILLER_0_39_125
*1511 FILLER_0_39_137
*1512 FILLER_0_39_148
*1513 FILLER_0_39_15
*1514 FILLER_0_39_157
*1515 FILLER_0_39_165
*1516 FILLER_0_39_169
*1517 FILLER_0_39_181
*1518 FILLER_0_39_193
*1519 FILLER_0_39_203
*1520 FILLER_0_39_215
*1521 FILLER_0_39_223
*1522 FILLER_0_39_225
*1523 FILLER_0_39_234
*1524 FILLER_0_39_259
*1525 FILLER_0_39_27
*1526 FILLER_0_39_271
*1527 FILLER_0_39_3
*1528 FILLER_0_39_39
*1529 FILLER_0_39_51
*1530 FILLER_0_39_55
*1531 FILLER_0_39_57
*1532 FILLER_0_39_69
*1533 FILLER_0_3_107
*1534 FILLER_0_3_111
*1535 FILLER_0_3_136
*1536 FILLER_0_3_15
*1537 FILLER_0_3_182
*1538 FILLER_0_3_190
*1539 FILLER_0_3_210
*1540 FILLER_0_3_222
*1541 FILLER_0_3_266
*1542 FILLER_0_3_272
*1543 FILLER_0_3_3
*1544 FILLER_0_3_61
*1545 FILLER_0_40_103
*1546 FILLER_0_40_115
*1547 FILLER_0_40_122
*1548 FILLER_0_40_129
*1549 FILLER_0_40_137
*1550 FILLER_0_40_141
*1551 FILLER_0_40_15
*1552 FILLER_0_40_150
*1553 FILLER_0_40_158
*1554 FILLER_0_40_164
*1555 FILLER_0_40_176
*1556 FILLER_0_40_188
*1557 FILLER_0_40_192
*1558 FILLER_0_40_197
*1559 FILLER_0_40_210
*1560 FILLER_0_40_222
*1561 FILLER_0_40_234
*1562 FILLER_0_40_244
*1563 FILLER_0_40_253
*1564 FILLER_0_40_265
*1565 FILLER_0_40_269
*1566 FILLER_0_40_27
*1567 FILLER_0_40_29
*1568 FILLER_0_40_3
*1569 FILLER_0_40_41
*1570 FILLER_0_40_53
*1571 FILLER_0_40_65
*1572 FILLER_0_40_85
*1573 FILLER_0_41_106
*1574 FILLER_0_41_113
*1575 FILLER_0_41_141
*1576 FILLER_0_41_15
*1577 FILLER_0_41_179
*1578 FILLER_0_41_234
*1579 FILLER_0_41_246
*1580 FILLER_0_41_258
*1581 FILLER_0_41_27
*1582 FILLER_0_41_270
*1583 FILLER_0_41_3
*1584 FILLER_0_41_39
*1585 FILLER_0_41_51
*1586 FILLER_0_41_55
*1587 FILLER_0_41_57
*1588 FILLER_0_41_69
*1589 FILLER_0_41_81
*1590 FILLER_0_42_15
*1591 FILLER_0_42_186
*1592 FILLER_0_42_218
*1593 FILLER_0_42_236
*1594 FILLER_0_42_248
*1595 FILLER_0_42_253
*1596 FILLER_0_42_265
*1597 FILLER_0_42_27
*1598 FILLER_0_42_29
*1599 FILLER_0_42_3
*1600 FILLER_0_42_41
*1601 FILLER_0_42_53
*1602 FILLER_0_42_65
*1603 FILLER_0_42_77
*1604 FILLER_0_42_83
*1605 FILLER_0_42_85
*1606 FILLER_0_43_113
*1607 FILLER_0_43_141
*1608 FILLER_0_43_15
*1609 FILLER_0_43_166
*1610 FILLER_0_43_185
*1611 FILLER_0_43_189
*1612 FILLER_0_43_222
*1613 FILLER_0_43_241
*1614 FILLER_0_43_253
*1615 FILLER_0_43_265
*1616 FILLER_0_43_27
*1617 FILLER_0_43_3
*1618 FILLER_0_43_39
*1619 FILLER_0_43_51
*1620 FILLER_0_43_55
*1621 FILLER_0_43_57
*1622 FILLER_0_43_69
*1623 FILLER_0_44_104
*1624 FILLER_0_44_113
*1625 FILLER_0_44_121
*1626 FILLER_0_44_127
*1627 FILLER_0_44_139
*1628 FILLER_0_44_141
*1629 FILLER_0_44_15
*1630 FILLER_0_44_153
*1631 FILLER_0_44_157
*1632 FILLER_0_44_186
*1633 FILLER_0_44_194
*1634 FILLER_0_44_221
*1635 FILLER_0_44_236
*1636 FILLER_0_44_248
*1637 FILLER_0_44_253
*1638 FILLER_0_44_265