*SPEF "ieee 1481-1999"
*DESIGN "cnn_kws_accel"
*DATE "11:11:11 Fri 11 11, 1111"
*VENDOR "OpenRCX"
*PROGRAM "Parallel Extraction"
*VERSION "1.0"
*DESIGN_FLOW "NAME_SCOPE LOCAL" "PIN_CAP NONE"
*DIVIDER /
*DELIMITER :
*BUS_DELIMITER []
*T_UNIT 1 NS
*C_UNIT 1 PF
*R_UNIT 1 OHM
*L_UNIT 1 HENRY

*NAME_MAP
*1 audio_sample[0]
*2 audio_sample[10]
*3 audio_sample[11]
*4 audio_sample[12]
*5 audio_sample[13]
*6 audio_sample[14]
*7 audio_sample[15]
*8 audio_sample[1]
*9 audio_sample[2]
*10 audio_sample[3]
*11 audio_sample[4]
*12 audio_sample[5]
*13 audio_sample[6]
*14 audio_sample[7]
*15 audio_sample[8]
*16 audio_sample[9]
*17 clk
*18 done
*19 net7
*20 net17
*21 net18
*22 net19
*23 net20
*24 net21
*25 net22
*26 net23
*27 net24
*28 net25
*29 net26
*30 net8
*31 net27
*32 net28
*33 net29
*34 net30
*35 net31
*36 net32
*37 net33
*38 net34
*39 net35
*40 net36
*41 net9
*42 net37
*43 net38
*44 net39
*45 net40
*46 net41
*47 net42
*48 net43
*49 net44
*50 net10
*51 net11
*52 net12
*53 net13
*54 net14
*55 net15
*56 net16
*57 net45
*58 net55
*59 net56
*60 net57
*61 net58
*62 net59
*63 net60
*64 net61
*65 net62
*66 net63
*67 net64
*68 net46
*69 net65
*70 net66
*71 net67
*72 net68
*73 net69
*74 net70
*75 net71
*76 net72
*77 net73
*78 net74
*79 net47
*80 net75
*81 net76
*82 net77
*83 net78
*84 net79
*85 net80
*86 net81
*87 net82
*88 net48
*89 net49
*90 net50
*91 net51
*92 net52
*93 net53
*94 net54
*95 psram_ce_n
*96 psram_d[0]
*97 net83
*98 net84
*99 net85
*100 net89
*101 net86
*102 net87
*103 net88
*104 psram_sck
*105 rst
*106 sample_valid
*107 start
*110 _0000_
*111 _0001_
*112 _0002_
*113 _0003_
*114 _0004_
*115 _0005_
*116 _0006_
*117 _0007_
*118 _0008_
*119 _0009_
*120 _0010_
*121 _0011_
*122 _0012_
*123 _0013_
*124 _0014_
*125 _0015_
*126 _0016_
*127 _0017_
*128 _0018_
*129 _0019_
*130 _0020_
*131 _0021_
*132 _0022_
*133 _0023_
*134 _0024_
*135 _0025_
*136 _0026_
*137 _0027_
*138 _0028_
*139 _0029_
*140 _0030_
*141 _0031_
*142 _0032_
*143 _0033_
*144 _0034_
*145 _0035_
*146 _0036_
*147 _0037_
*148 _0038_
*149 _0039_
*150 _0040_
*151 _0041_
*152 _0042_
*153 _0043_
*154 _0044_
*155 _0045_
*156 _0046_
*157 _0047_
*158 _0048_
*159 _0049_
*160 _0050_
*161 _0051_
*162 _0052_
*163 _0053_
*164 _0054_
*165 _0055_
*166 _0056_
*167 _0057_
*168 _0058_
*169 _0059_
*170 _0060_
*171 _0061_
*172 _0062_
*173 _0063_
*174 _0064_
*175 _0065_
*176 _0066_
*177 _0067_
*178 _0068_
*179 _0069_
*180 _0070_
*181 _0071_
*182 _0072_
*183 _0073_
*184 _0074_
*185 _0075_
*186 _0076_
*187 _0077_
*188 _0078_
*189 _0079_
*190 _0080_
*191 _0081_
*192 _0082_
*193 _0083_
*194 _0084_
*195 _0085_
*196 _0086_
*197 _0087_
*198 _0088_
*199 _0089_
*200 _0090_
*201 _0091_
*202 _0092_
*203 _0093_
*204 _0094_
*205 _0095_
*206 _0096_
*207 _0097_
*208 _0098_
*209 _0099_
*210 _0100_
*211 _0101_
*212 _0102_
*213 _0103_
*214 _0104_
*215 _0105_
*216 _0106_
*217 _0107_
*218 _0108_
*219 _0109_
*220 _0110_
*221 _0111_
*222 _0112_
*223 _0113_
*224 _0114_
*225 _0115_
*226 _0116_
*227 _0117_
*228 _0118_
*229 _0119_
*230 _0120_
*231 _0121_
*232 _0122_
*233 _0123_
*234 _0124_
*235 _0125_
*236 _0126_
*237 _0127_
*238 _0128_
*239 _0129_
*240 _0130_
*241 _0131_
*242 _0132_
*243 _0133_
*244 _0134_
*245 _0135_
*246 _0136_
*247 _0137_
*248 _0138_
*249 _0139_
*250 _0140_
*251 _0141_
*252 _0142_
*253 _0143_
*254 _0144_
*255 _0145_
*256 _0146_
*257 _0147_
*258 _0148_
*259 _0149_
*260 _0150_
*261 _0151_
*262 _0152_
*263 _0153_
*264 _0154_
*265 _0155_
*266 _0156_
*267 _0157_
*268 _0158_
*269 _0159_
*270 _0160_
*271 _0161_
*272 _0162_
*273 _0163_
*274 _0164_
*275 _0165_
*276 _0166_
*277 _0167_
*278 _0168_
*279 _0169_
*280 _0170_
*281 _0171_
*282 _0172_
*283 _0173_
*284 _0174_
*285 _0175_
*286 _0176_
*287 _0177_
*288 _0178_
*289 _0179_
*290 _0180_
*291 _0181_
*292 _0182_
*293 _0183_
*294 _0184_
*295 _0185_
*296 _0186_
*297 _0187_
*298 _0188_
*299 _0189_
*300 _0190_
*301 _0191_
*302 _0192_
*303 _0193_
*304 _0194_
*305 _0195_
*306 _0196_
*307 _0197_
*308 _0198_
*309 _0199_
*310 _0200_
*311 _0201_
*312 _0202_
*313 _0203_
*314 _0204_
*315 _0205_
*316 _0206_
*317 _0207_
*318 _0208_
*319 _0209_
*320 _0210_
*321 _0211_
*322 _0212_
*323 _0213_
*324 _0214_
*325 _0215_
*326 _0216_
*327 _0217_
*328 _0218_
*329 _0219_
*330 _0220_
*331 _0221_
*332 _0222_
*333 _0223_
*334 _0224_
*335 _0225_
*336 _0226_
*337 _0227_
*338 _0228_
*339 _0229_
*340 _0230_
*341 _0231_
*342 _0232_
*343 _0233_
*344 _0234_
*345 _0235_
*346 _0236_
*347 _0237_
*348 _0238_
*349 _0239_
*350 _0240_
*351 _0241_
*352 _0242_
*353 _0243_
*354 _0244_
*355 _0245_
*356 _0246_
*357 _0247_
*358 _0248_
*359 _0249_
*360 _0250_
*361 _0251_
*362 _0252_
*363 _0253_
*364 _0254_
*365 _0255_
*366 _0256_
*367 _0257_
*368 _0258_
*369 _0259_
*370 _0260_
*371 _0261_
*372 _0262_
*373 _0263_
*374 _0264_
*375 _0265_
*376 _0266_
*377 _0267_
*378 _0268_
*379 _0269_
*380 _0270_
*381 _0271_
*382 _0272_
*383 _0273_
*384 _0274_
*385 _0275_
*386 _0276_
*387 _0277_
*388 _0278_
*389 _0279_
*390 _0280_
*391 _0281_
*392 _0282_
*393 _0283_
*394 _0284_
*395 _0285_
*396 _0286_
*397 _0287_
*398 _0288_
*399 _0289_
*400 _0290_
*401 _0291_
*402 _0292_
*403 _0293_
*404 _0294_
*405 _0295_
*406 _0296_
*407 _0297_
*408 _0298_
*409 _0299_
*410 _0300_
*411 _0301_
*412 _0302_
*413 _0303_
*414 _0304_
*415 _0305_
*416 _0306_
*417 _0307_
*418 _0308_
*419 _0309_
*420 _0310_
*421 _0311_
*422 _0312_
*423 _0313_
*424 _0314_
*425 _0315_
*426 _0316_
*427 _0317_
*428 _0318_
*429 _0319_
*430 _0320_
*431 _0321_
*432 _0322_
*433 _0323_
*434 _0324_
*435 _0325_
*436 _0326_
*437 _0327_
*438 _0328_
*439 _0329_
*440 _0330_
*441 _0331_
*442 _0332_
*443 _0333_
*444 _0334_
*445 _0335_
*446 _0336_
*447 _0337_
*448 _0338_
*449 _0339_
*450 _0340_
*451 _0341_
*452 _0342_
*453 _0343_
*454 _0344_
*455 _0345_
*456 _0346_
*457 _0347_
*458 _0348_
*459 _0349_
*460 _0350_
*461 _0351_
*462 _0352_
*463 _0353_
*464 _0354_
*465 _0355_
*466 _0356_
*467 _0357_
*468 _0358_
*469 _0359_
*470 _0360_
*471 _0361_
*472 _0362_
*473 _0363_
*474 _0364_
*475 _0365_
*476 _0366_
*477 _0367_
*478 _0368_
*479 _0369_
*480 _0370_
*481 _0371_
*482 _0372_
*483 _0373_
*484 _0374_
*485 _0375_
*486 _0376_
*487 _0377_
*488 _0378_
*489 _0379_
*490 _0380_
*491 _0381_
*492 _0382_
*493 _0383_
*494 _0384_
*495 _0385_
*496 _0386_
*497 _0387_
*498 _0388_
*499 _0389_
*500 _0390_
*501 _0391_
*502 _0392_
*503 _0393_
*504 _0394_
*505 _0395_
*506 _0396_
*507 _0397_
*508 _0398_
*509 _0399_
*510 _0400_
*511 _0401_
*512 _0402_
*513 _0403_
*514 _0404_
*515 _0405_
*516 _0406_
*517 _0407_
*518 _0408_
*519 _0409_
*520 _0410_
*521 _0411_
*522 _0412_
*523 _0413_
*524 _0414_
*525 _0415_
*526 _0416_
*527 _0417_
*528 _0418_
*529 _0419_
*530 _0420_
*531 _0421_
*532 _0422_
*533 _0423_
*534 _0424_
*535 _0425_
*536 _0426_
*537 _0427_
*538 _0428_
*539 _0429_
*540 _0430_
*541 _0431_
*542 _0432_
*543 _0433_
*544 _0434_
*545 _0435_
*546 _0436_
*547 _0437_
*548 _0438_
*549 _0439_
*550 _0440_
*551 _0441_
*552 _0442_
*553 _0443_
*554 _0444_
*555 _0445_
*556 _0446_
*557 _0447_
*558 _0448_
*559 _0449_
*560 _0450_
*561 _0451_
*562 _0452_
*563 _0453_
*564 _0454_
*565 _0455_
*566 _0456_
*567 _0457_
*568 _0458_
*569 _0459_
*570 _0460_
*571 _0461_
*572 _0462_
*573 _0463_
*574 _0464_
*575 _0465_
*576 _0466_
*577 _0467_
*578 _0468_
*579 _0469_
*580 _0470_
*581 _0471_
*582 _0472_
*583 _0473_
*584 _0474_
*585 _0475_
*586 _0476_
*587 _0477_
*588 _0478_
*589 _0479_
*590 _0480_
*591 _0481_
*592 _0482_
*593 _0483_
*594 _0484_
*595 _0485_
*596 _0486_
*597 _0487_
*598 _0488_
*599 _0489_
*600 _0490_
*601 _0491_
*602 _0492_
*603 _0493_
*604 _0494_
*605 _0495_
*606 _0496_
*607 _0497_
*608 _0498_
*609 _0499_
*610 _0500_
*611 _0501_
*612 _0502_
*613 _0503_
*614 _0504_
*615 _0505_
*616 _0506_
*617 _0507_
*618 _0508_
*619 _0509_
*620 _0510_
*621 _0511_
*622 _0512_
*623 _0513_
*624 _0514_
*625 _0515_
*626 _0516_
*627 _0517_
*628 _0518_
*629 _0519_
*630 _0520_
*631 _0521_
*632 _0522_
*633 _0523_
*634 _0524_
*635 _0525_
*636 _0526_
*637 _0527_
*638 _0528_
*639 _0529_
*640 _0530_
*641 _0531_
*642 _0532_
*643 _0533_
*644 _0534_
*645 _0535_
*646 _0536_
*647 _0537_
*648 _0538_
*649 _0539_
*650 _0540_
*651 _0541_
*652 _0542_
*653 _0543_
*654 _0544_
*655 _0545_
*656 _0546_
*657 _0547_
*658 _0548_
*659 _0549_
*660 _0550_
*661 _0551_
*662 _0552_
*663 _0553_
*664 _0554_
*665 _0555_
*666 _0556_
*667 _0557_
*668 _0558_
*669 _0559_
*670 _0560_
*671 _0561_
*672 _0562_
*673 _0563_
*674 _0564_
*675 _0565_
*676 _0566_
*677 _0567_
*678 _0568_
*679 _0569_
*680 _0570_
*681 _0571_
*682 _0572_
*683 _0573_
*684 _0574_
*685 _0575_
*686 _0576_
*687 _0577_
*688 _0578_
*689 _0579_
*690 _0580_
*691 _0581_
*692 _0582_
*693 _0583_
*694 _0584_
*695 _0585_
*696 _0586_
*697 _0587_
*698 _0588_
*699 _0589_
*700 _0590_
*701 _0591_
*702 _0592_
*703 _0593_
*704 _0594_
*705 _0595_
*706 _0596_
*707 _0597_
*708 _0598_
*709 _0599_
*710 _0600_
*711 _0601_
*712 _0602_
*713 _0603_
*714 _0604_
*715 _0605_
*716 _0606_
*717 _0607_
*718 _0608_
*719 _0609_
*720 _0610_
*721 clknet_0_clk
*722 clknet_4_0_0_clk
*723 clknet_4_10_0_clk
*724 clknet_4_11_0_clk
*725 clknet_4_12_0_clk
*726 clknet_4_13_0_clk
*727 clknet_4_14_0_clk
*728 clknet_4_15_0_clk
*729 clknet_4_1_0_clk
*730 clknet_4_2_0_clk
*731 clknet_4_3_0_clk
*732 clknet_4_4_0_clk
*733 clknet_4_5_0_clk
*734 clknet_4_6_0_clk
*735 clknet_4_7_0_clk
*736 clknet_4_8_0_clk
*737 clknet_4_9_0_clk
*738 conv1\.addr\[8\]
*739 conv1\.data_valid
*740 conv1\.done
*741 conv1\.psram_ce_n
*742 conv1\.psram_ctrl\.counter\[0\]
*743 conv1\.psram_ctrl\.counter\[1\]
*744 conv1\.psram_ctrl\.counter\[2\]
*745 conv1\.psram_ctrl\.counter\[3\]
*746 conv1\.psram_ctrl\.counter\[4\]
*747 conv1\.psram_ctrl\.counter\[5\]
*748 conv1\.psram_ctrl\.counter\[6\]
*749 conv1\.psram_ctrl\.counter\[7\]
*750 conv1\.psram_ctrl\.has_wait_states
*751 conv1\.psram_ctrl\.nstate
*752 conv1\.psram_ctrl\.sck
*753 conv1\.psram_ctrl\.start
*754 conv1\.psram_ctrl\.state
*755 conv1\.state\[0\]
*756 conv1\.state\[1\]
*757 conv1\.state\[2\]
*758 conv1\.state\[3\]
*759 conv1\.state\[5\]
*760 conv2\.addr\[8\]
*761 conv2\.addr\[9\]
*762 conv2\.data_out_valid
*763 conv2\.data_valid
*764 conv2\.psram_ce_n
*765 conv2\.psram_ctrl\.counter\[0\]
*766 conv2\.psram_ctrl\.counter\[1\]
*767 conv2\.psram_ctrl\.counter\[2\]
*768 conv2\.psram_ctrl\.counter\[3\]
*769 conv2\.psram_ctrl\.counter\[4\]
*770 conv2\.psram_ctrl\.counter\[5\]
*771 conv2\.psram_ctrl\.counter\[6\]
*772 conv2\.psram_ctrl\.counter\[7\]
*773 conv2\.psram_ctrl\.has_wait_states
*774 conv2\.psram_ctrl\.nstate
*775 conv2\.psram_ctrl\.sck
*776 conv2\.psram_ctrl\.start
*777 conv2\.psram_ctrl\.state
*778 conv2\.state\[0\]
*779 conv2\.state\[1\]
*780 conv2\.state\[2\]
*781 conv2\.state\[3\]
*782 conv2\.state\[5\]
*783 fc1\.addr\[10\]
*784 fc1\.addr\[8\]
*785 fc1\.data_out_valid
*786 fc1\.psram_ce_n
*787 fc1\.psram_ctrl\.counter\[0\]
*788 fc1\.psram_ctrl\.counter\[1\]
*789 fc1\.psram_ctrl\.counter\[2\]
*790 fc1\.psram_ctrl\.counter\[3\]
*791 fc1\.psram_ctrl\.counter\[4\]
*792 fc1\.psram_ctrl\.counter\[5\]
*793 fc1\.psram_ctrl\.counter\[6\]
*794 fc1\.psram_ctrl\.counter\[7\]
*795 fc1\.psram_ctrl\.has_wait_states
*796 fc1\.psram_ctrl\.nstate
*797 fc1\.psram_ctrl\.sck
*798 fc1\.psram_ctrl\.start
*799 fc1\.psram_ctrl\.state
*800 fc1\.state\[0\]
*801 fc1\.state\[1\]
*802 fc1\.state\[2\]
*803 fc1\.state\[3\]
*804 fc1\.state\[5\]
*805 fc2\.addr\[10\]
*806 fc2\.addr\[8\]
*807 fc2\.done
*808 fc2\.psram_ce_n
*809 fc2\.psram_ctrl\.counter\[0\]
*810 fc2\.psram_ctrl\.counter\[1\]
*811 fc2\.psram_ctrl\.counter\[2\]
*812 fc2\.psram_ctrl\.counter\[3\]
*813 fc2\.psram_ctrl\.counter\[4\]
*814 fc2\.psram_ctrl\.counter\[5\]
*815 fc2\.psram_ctrl\.counter\[6\]
*816 fc2\.psram_ctrl\.counter\[7\]
*817 fc2\.psram_ctrl\.has_wait_states
*818 fc2\.psram_ctrl\.nstate
*819 fc2\.psram_ctrl\.sck
*820 fc2\.psram_ctrl\.start
*821 fc2\.psram_ctrl\.state
*822 fc2\.state\[0\]
*823 fc2\.state\[1\]
*824 fc2\.state\[2\]
*825 fc2\.state\[3\]
*826 fc2\.state\[5\]
*827 maxpool\.addr\[11\]
*828 maxpool\.addr\[8\]
*829 maxpool\.done
*830 maxpool\.psram_ce_n
*831 maxpool\.psram_ctrl\.counter\[0\]
*832 maxpool\.psram_ctrl\.counter\[1\]
*833 maxpool\.psram_ctrl\.counter\[2\]
*834 maxpool\.psram_ctrl\.counter\[3\]
*835 maxpool\.psram_ctrl\.counter\[4\]
*836 maxpool\.psram_ctrl\.counter\[5\]
*837 maxpool\.psram_ctrl\.counter\[6\]
*838 maxpool\.psram_ctrl\.counter\[7\]
*839 maxpool\.psram_ctrl\.nstate
*840 maxpool\.psram_ctrl\.sck
*841 maxpool\.psram_ctrl\.start
*842 maxpool\.psram_ctrl\.state
*843 maxpool\.start
*844 maxpool\.state\[0\]
*845 maxpool\.state\[2\]
*846 maxpool\.state\[3\]
*847 maxpool\.state\[4\]
*848 mfcc\.dct\.data_valid
*849 mfcc\.dct\.dct_valid
*850 mfcc\.dct\.input_counter\[0\]
*851 mfcc\.dct\.input_counter\[1\]
*852 mfcc\.dct\.input_counter\[2\]
*853 mfcc\.dct\.input_counter\[3\]
*854 mfcc\.dct\.input_counter\[4\]
*855 mfcc\.dct\.output_counter\[0\]
*856 mfcc\.dct\.output_counter\[1\]
*857 mfcc\.dct\.output_counter\[2\]
*858 mfcc\.dct\.output_counter\[3\]
*859 mfcc\.dct\.output_counter\[4\]
*860 mfcc\.dct\.output_counter\[5\]
*861 mfcc\.dct\.state\[0\]
*862 mfcc\.dct\.state\[1\]
*863 mfcc\.log\.data_valid
*864 mfcc\.log\.shift_count\[0\]
*865 mfcc\.log\.shift_count\[1\]
*866 mfcc\.log\.shift_count\[2\]
*867 mfcc\.log\.shift_count\[3\]
*868 mfcc\.log\.state\[0\]
*869 mfcc\.log\.state\[1\]
*870 mfcc\.log\.state\[2\]
*871 mfcc\.mel\.coeff_counter\[0\]
*872 mfcc\.mel\.coeff_counter\[1\]
*873 mfcc\.mel\.coeff_counter\[2\]
*874 mfcc\.mel\.coeff_counter\[3\]
*875 mfcc\.mel\.coeff_counter\[4\]
*876 mfcc\.mel\.filter_counter\[0\]
*877 mfcc\.mel\.filter_counter\[1\]
*878 mfcc\.mel\.filter_counter\[2\]
*879 mfcc\.mel\.filter_counter\[3\]
*880 mfcc\.mel\.filter_counter\[4\]
*881 mfcc\.mel\.filter_counter\[5\]
*882 mfcc\.mel\.state\[0\]
*883 mfcc\.mel\.state\[1\]
*884 mfcc\.mfcc_valid
*885 net1
*886 net100
*887 net101
*888 net102
*889 net103
*890 net104
*891 net105
*892 net106
*893 net107
*894 net108
*895 net109
*896 net110
*897 net111
*898 net112
*899 net113
*900 net114
*901 net115
*902 net116
*903 net117
*904 net118
*905 net119
*906 net120
*907 net121
*908 net122
*909 net123
*910 net124
*911 net125
*912 net126
*913 net127
*914 net128
*915 net129
*916 net130
*917 net131
*918 net132
*919 net133
*920 net134
*921 net135
*922 net136
*923 net137
*924 net138
*925 net139
*926 net140
*927 net141
*928 net142
*929 net143
*930 net144
*931 net145
*932 net146
*933 net147
*934 net148
*935 net149
*936 net150
*937 net151
*938 net152
*939 net153
*940 net154
*941 net155
*942 net156
*943 net157
*944 net158
*945 net159
*946 net160
*947 net161
*948 net162
*949 net163
*950 net164
*951 net165
*952 net166
*953 net167
*954 net168
*955 net169
*956 net170
*957 net171
*958 net172
*959 net173
*960 net174
*961 net175
*962 net176
*963 net177
*964 net178
*965 net179
*966 net180
*967 net181
*968 net182
*969 net183
*970 net184
*971 net185
*972 net186
*973 net187
*974 net188
*975 net189
*976 net190
*977 net191
*978 net192
*979 net193
*980 net194
*981 net195
*982 net196
*983 net197
*984 net198
*985 net199
*986 net2
*987 net200
*988 net201
*989 net202
*990 net203
*991 net204
*992 net205
*993 net206
*994 net207
*995 net208
*996 net209
*997 net210
*998 net211
*999 net212
*1000 net213
*1001 net214
*1002 net215
*1003 net216
*1004 net217
*1005 net218
*1006 net219
*1007 net220
*1008 net221
*1009 net222
*1010 net223
*1011 net224
*1012 net225
*1013 net226
*1014 net227
*1015 net228
*1016 net229
*1017 net230
*1018 net231
*1019 net232
*1020 net233
*1021 net234
*1022 net235
*1023 net236
*1024 net237
*1025 net238
*1026 net239
*1027 net240
*1028 net241
*1029 net242
*1030 net243
*1031 net244
*1032 net245
*1033 net246
*1034 net247
*1035 net248
*1036 net249
*1037 net250
*1038 net3
*1039 net4
*1040 net5
*1041 net6
*1042 net90
*1043 net91
*1044 net92
*1045 net93
*1046 net94
*1047 net95
*1048 net96
*1049 net97
*1050 net98
*1051 net99
*1052 softmax\.addr\[11\]
*1053 softmax\.addr\[8\]
*1054 softmax\.data_valid
*1055 softmax\.psram_ce_n
*1056 softmax\.psram_ctrl\.counter\[0\]
*1057 softmax\.psram_ctrl\.counter\[1\]
*1058 softmax\.psram_ctrl\.counter\[2\]
*1059 softmax\.psram_ctrl\.counter\[3\]
*1060 softmax\.psram_ctrl\.counter\[4\]
*1061 softmax\.psram_ctrl\.counter\[5\]
*1062 softmax\.psram_ctrl\.counter\[6\]
*1063 softmax\.psram_ctrl\.counter\[7\]
*1064 softmax\.psram_ctrl\.nstate
*1065 softmax\.psram_ctrl\.sck
*1066 softmax\.psram_ctrl\.start
*1067 softmax\.psram_ctrl\.state
*1068 softmax\.start
*1069 state\[0\]
*1070 state\[1\]
*1071 state\[4\]
*1072 state\[5\]
*1073 ANTENNA_1
*1074 FILLER_0_0_109
*1075 FILLER_0_0_113
*1076 FILLER_0_0_121
*1077 FILLER_0_0_128
*1078 FILLER_0_0_13
*1079 FILLER_0_0_141
*1080 FILLER_0_0_153
*1081 FILLER_0_0_165
*1082 FILLER_0_0_169
*1083 FILLER_0_0_177
*1084 FILLER_0_0_181
*1085 FILLER_0_0_193
*1086 FILLER_0_0_197
*1087 FILLER_0_0_209
*1088 FILLER_0_0_221
*1089 FILLER_0_0_225
*1090 FILLER_0_0_237
*1091 FILLER_0_0_249
*1092 FILLER_0_0_25
*1093 FILLER_0_0_253
*1094 FILLER_0_0_261
*1095 FILLER_0_0_265
*1096 FILLER_0_0_277
*1097 FILLER_0_0_281
*1098 FILLER_0_0_29
*1099 FILLER_0_0_293
*1100 FILLER_0_0_300
*1101 FILLER_0_0_309
*1102 FILLER_0_0_323
*1103 FILLER_0_0_335
*1104 FILLER_0_0_337
*1105 FILLER_0_0_345
*1106 FILLER_0_0_349
*1107 FILLER_0_0_361
*1108 FILLER_0_0_365
*1109 FILLER_0_0_37
*1110 FILLER_0_0_373
*1111 FILLER_0_0_384
*1112 FILLER_0_0_393
*1113 FILLER_0_0_401
*1114 FILLER_0_0_409
*1115 FILLER_0_0_41
*1116 FILLER_0_0_421
*1117 FILLER_0_0_432
*1118 FILLER_0_0_444
*1119 FILLER_0_0_449
*1120 FILLER_0_0_457
*1121 FILLER_0_0_461
*1122 FILLER_0_0_473
*1123 FILLER_0_0_477
*1124 FILLER_0_0_485
*1125 FILLER_0_0_489
*1126 FILLER_0_0_501
*1127 FILLER_0_0_505
*1128 FILLER_0_0_513
*1129 FILLER_0_0_520
*1130 FILLER_0_0_53
*1131 FILLER_0_0_533
*1132 FILLER_0_0_541
*1133 FILLER_0_0_545
*1134 FILLER_0_0_557
*1135 FILLER_0_0_561
*1136 FILLER_0_0_569
*1137 FILLER_0_0_57
*1138 FILLER_0_0_573
*1139 FILLER_0_0_585
*1140 FILLER_0_0_589
*1141 FILLER_0_0_597
*1142 FILLER_0_0_601
*1143 FILLER_0_0_613
*1144 FILLER_0_0_617
*1145 FILLER_0_0_625
*1146 FILLER_0_0_629
*1147 FILLER_0_0_641
*1148 FILLER_0_0_645
*1149 FILLER_0_0_65
*1150 FILLER_0_0_657
*1151 FILLER_0_0_669
*1152 FILLER_0_0_673
*1153 FILLER_0_0_685
*1154 FILLER_0_0_69
*1155 FILLER_0_0_697
*1156 FILLER_0_0_701
*1157 FILLER_0_0_709
*1158 FILLER_0_0_713
*1159 FILLER_0_0_729
*1160 FILLER_0_0_81
*1161 FILLER_0_0_85
*1162 FILLER_0_0_9
*1163 FILLER_0_0_93
*1164 FILLER_0_0_97
*1165 FILLER_0_100_109
*1166 FILLER_0_100_121
*1167 FILLER_0_100_133
*1168 FILLER_0_100_139
*1169 FILLER_0_100_141
*1170 FILLER_0_100_153
*1171 FILLER_0_100_165
*1172 FILLER_0_100_177
*1173 FILLER_0_100_18
*1174 FILLER_0_100_189
*1175 FILLER_0_100_195
*1176 FILLER_0_100_197
*1177 FILLER_0_100_209
*1178 FILLER_0_100_221
*1179 FILLER_0_100_233
*1180 FILLER_0_100_245
*1181 FILLER_0_100_251
*1182 FILLER_0_100_253
*1183 FILLER_0_100_26
*1184 FILLER_0_100_265
*1185 FILLER_0_100_277
*1186 FILLER_0_100_289
*1187 FILLER_0_100_29
*1188 FILLER_0_100_301
*1189 FILLER_0_100_307
*1190 FILLER_0_100_309
*1191 FILLER_0_100_321
*1192 FILLER_0_100_333
*1193 FILLER_0_100_345
*1194 FILLER_0_100_357
*1195 FILLER_0_100_363
*1196 FILLER_0_100_365
*1197 FILLER_0_100_377
*1198 FILLER_0_100_389
*1199 FILLER_0_100_401
*1200 FILLER_0_100_41
*1201 FILLER_0_100_413
*1202 FILLER_0_100_419
*1203 FILLER_0_100_421
*1204 FILLER_0_100_433
*1205 FILLER_0_100_445
*1206 FILLER_0_100_457
*1207 FILLER_0_100_469
*1208 FILLER_0_100_475
*1209 FILLER_0_100_477
*1210 FILLER_0_100_489
*1211 FILLER_0_100_501
*1212 FILLER_0_100_513
*1213 FILLER_0_100_525
*1214 FILLER_0_100_53
*1215 FILLER_0_100_531
*1216 FILLER_0_100_533
*1217 FILLER_0_100_545
*1218 FILLER_0_100_557
*1219 FILLER_0_100_569
*1220 FILLER_0_100_581
*1221 FILLER_0_100_587
*1222 FILLER_0_100_589
*1223 FILLER_0_100_6
*1224 FILLER_0_100_601
*1225 FILLER_0_100_613
*1226 FILLER_0_100_625
*1227 FILLER_0_100_637
*1228 FILLER_0_100_643
*1229 FILLER_0_100_645
*1230 FILLER_0_100_65
*1231 FILLER_0_100_657
*1232 FILLER_0_100_669
*1233 FILLER_0_100_681
*1234 FILLER_0_100_693
*1235 FILLER_0_100_699
*1236 FILLER_0_100_701
*1237 FILLER_0_100_713
*1238 FILLER_0_100_725
*1239 FILLER_0_100_77
*1240 FILLER_0_100_83
*1241 FILLER_0_100_85
*1242 FILLER_0_100_97
*1243 FILLER_0_101_105
*1244 FILLER_0_101_111
*1245 FILLER_0_101_113
*1246 FILLER_0_101_125
*1247 FILLER_0_101_137
*1248 FILLER_0_101_149
*1249 FILLER_0_101_15
*1250 FILLER_0_101_161
*1251 FILLER_0_101_167
*1252 FILLER_0_101_169
*1253 FILLER_0_101_181
*1254 FILLER_0_101_193
*1255 FILLER_0_101_205
*1256 FILLER_0_101_217
*1257 FILLER_0_101_223
*1258 FILLER_0_101_225
*1259 FILLER_0_101_237
*1260 FILLER_0_101_249
*1261 FILLER_0_101_261
*1262 FILLER_0_101_27
*1263 FILLER_0_101_273
*1264 FILLER_0_101_279
*1265 FILLER_0_101_281
*1266 FILLER_0_101_293
*1267 FILLER_0_101_3
*1268 FILLER_0_101_305
*1269 FILLER_0_101_317
*1270 FILLER_0_101_329
*1271 FILLER_0_101_335
*1272 FILLER_0_101_337
*1273 FILLER_0_101_349
*1274 FILLER_0_101_361
*1275 FILLER_0_101_373
*1276 FILLER_0_101_385
*1277 FILLER_0_101_39
*1278 FILLER_0_101_391
*1279 FILLER_0_101_393
*1280 FILLER_0_101_405
*1281 FILLER_0_101_417
*1282 FILLER_0_101_429
*1283 FILLER_0_101_441
*1284 FILLER_0_101_447
*1285 FILLER_0_101_449
*1286 FILLER_0_101_461
*1287 FILLER_0_101_473
*1288 FILLER_0_101_485
*1289 FILLER_0_101_497
*1290 FILLER_0_101_503
*1291 FILLER_0_101_505
*1292 FILLER_0_101_51
*1293 FILLER_0_101_517
*1294 FILLER_0_101_529
*1295 FILLER_0_101_541
*1296 FILLER_0_101_55
*1297 FILLER_0_101_553
*1298 FILLER_0_101_559
*1299 FILLER_0_101_561
*1300 FILLER_0_101_57
*1301 FILLER_0_101_573
*1302 FILLER_0_101_585
*1303 FILLER_0_101_597
*1304 FILLER_0_101_609
*1305 FILLER_0_101_615
*1306 FILLER_0_101_617
*1307 FILLER_0_101_629
*1308 FILLER_0_101_641
*1309 FILLER_0_101_653
*1310 FILLER_0_101_665
*1311 FILLER_0_101_671
*1312 FILLER_0_101_673
*1313 FILLER_0_101_685
*1314 FILLER_0_101_69
*1315 FILLER_0_101_697
*1316 FILLER_0_101_709
*1317 FILLER_0_101_721
*1318 FILLER_0_101_727
*1319 FILLER_0_101_729
*1320 FILLER_0_101_81
*1321 FILLER_0_101_93
*1322 FILLER_0_102_109
*1323 FILLER_0_102_121
*1324 FILLER_0_102_133
*1325 FILLER_0_102_139
*1326 FILLER_0_102_141
*1327 FILLER_0_102_15
*1328 FILLER_0_102_153
*1329 FILLER_0_102_165
*1330 FILLER_0_102_177
*1331 FILLER_0_102_189
*1332 FILLER_0_102_195
*1333 FILLER_0_102_197
*1334 FILLER_0_102_209
*1335 FILLER_0_102_221
*1336 FILLER_0_102_233
*1337 FILLER_0_102_245
*1338 FILLER_0_102_251
*1339 FILLER_0_102_253
*1340 FILLER_0_102_265
*1341 FILLER_0_102_27
*1342 FILLER_0_102_277
*1343 FILLER_0_102_289
*1344 FILLER_0_102_29
*1345 FILLER_0_102_3
*1346 FILLER_0_102_301
*1347 FILLER_0_102_307
*1348 FILLER_0_102_309
*1349 FILLER_0_102_321
*1350 FILLER_0_102_333
*1351 FILLER_0_102_345
*1352 FILLER_0_102_357
*1353 FILLER_0_102_363
*1354 FILLER_0_102_365
*1355 FILLER_0_102_377
*1356 FILLER_0_102_389
*1357 FILLER_0_102_401
*1358 FILLER_0_102_41
*1359 FILLER_0_102_413
*1360 FILLER_0_102_419
*1361 FILLER_0_102_421
*1362 FILLER_0_102_433
*1363 FILLER_0_102_445
*1364 FILLER_0_102_457
*1365 FILLER_0_102_469
*1366 FILLER_0_102_475
*1367 FILLER_0_102_477
*1368 FILLER_0_102_489
*1369 FILLER_0_102_501
*1370 FILLER_0_102_513
*1371 FILLER_0_102_525
*1372 FILLER_0_102_53
*1373 FILLER_0_102_531
*1374 FILLER_0_102_533
*1375 FILLER_0_102_545
*1376 FILLER_0_102_557
*1377 FILLER_0_102_569
*1378 FILLER_0_102_581
*1379 FILLER_0_102_587
*1380 FILLER_0_102_589
*1381 FILLER_0_102_601
*1382 FILLER_0_102_613
*1383 FILLER_0_102_625
*1384 FILLER_0_102_637
*1385 FILLER_0_102_643
*1386 FILLER_0_102_645
*1387 FILLER_0_102_65
*1388 FILLER_0_102_657
*1389 FILLER_0_102_669
*1390 FILLER_0_102_681
*1391 FILLER_0_102_693
*1392 FILLER_0_102_699
*1393 FILLER_0_102_701
*1394 FILLER_0_102_713
*1395 FILLER_0_102_725
*1396 FILLER_0_102_729
*1397 FILLER_0_102_77
*1398 FILLER_0_102_83
*1399 FILLER_0_102_85
*1400 FILLER_0_102_97
*1401 FILLER_0_103_105
*1402 FILLER_0_103_111
*1403 FILLER_0_103_113
*1404 FILLER_0_103_125
*1405 FILLER_0_103_137
*1406 FILLER_0_103_149
*1407 FILLER_0_103_15
*1408 FILLER_0_103_161
*1409 FILLER_0_103_167
*1410 FILLER_0_103_169
*1411 FILLER_0_103_181
*1412 FILLER_0_103_193
*1413 FILLER_0_103_205
*1414 FILLER_0_103_217
*1415 FILLER_0_103_223
*1416 FILLER_0_103_225
*1417 FILLER_0_103_237
*1418 FILLER_0_103_249
*1419 FILLER_0_103_261
*1420 FILLER_0_103_27
*1421 FILLER_0_103_273
*1422 FILLER_0_103_279
*1423 FILLER_0_103_281
*1424 FILLER_0_103_293
*1425 FILLER_0_103_3
*1426 FILLER_0_103_305
*1427 FILLER_0_103_317
*1428 FILLER_0_103_329
*1429 FILLER_0_103_335
*1430 FILLER_0_103_337
*1431 FILLER_0_103_349
*1432 FILLER_0_103_361
*1433 FILLER_0_103_373
*1434 FILLER_0_103_385
*1435 FILLER_0_103_39
*1436 FILLER_0_103_391
*1437 FILLER_0_103_393
*1438 FILLER_0_103_405
*1439 FILLER_0_103_417
*1440 FILLER_0_103_429
*1441 FILLER_0_103_441
*1442 FILLER_0_103_447
*1443 FILLER_0_103_449
*1444 FILLER_0_103_461
*1445 FILLER_0_103_473
*1446 FILLER_0_103_485
*1447 FILLER_0_103_497
*1448 FILLER_0_103_503
*1449 FILLER_0_103_505
*1450 FILLER_0_103_51
*1451 FILLER_0_103_517
*1452 FILLER_0_103_529
*1453 FILLER_0_103_541
*1454 FILLER_0_103_55
*1455 FILLER_0_103_553
*1456 FILLER_0_103_559
*1457 FILLER_0_103_561
*1458 FILLER_0_103_57
*1459 FILLER_0_103_573
*1460 FILLER_0_103_585
*1461 FILLER_0_103_597
*1462 FILLER_0_103_609
*1463 FILLER_0_103_615
*1464 FILLER_0_103_617
*1465 FILLER_0_103_629
*1466 FILLER_0_103_641
*1467 FILLER_0_103_653
*1468 FILLER_0_103_665
*1469 FILLER_0_103_671
*1470 FILLER_0_103_673
*1471 FILLER_0_103_685
*1472 FILLER_0_103_69
*1473 FILLER_0_103_697
*1474 FILLER_0_103_709
*1475 FILLER_0_103_721
*1476 FILLER_0_103_727
*1477 FILLER_0_103_729
*1478 FILLER_0_103_81
*1479 FILLER_0_103_93
*1480 FILLER_0_104_109
*1481 FILLER_0_104_121
*1482 FILLER_0_104_133
*1483 FILLER_0_104_139
*1484 FILLER_0_104_141
*1485 FILLER_0_104_15
*1486 FILLER_0_104_153
*1487 FILLER_0_104_165
*1488 FILLER_0_104_177
*1489 FILLER_0_104_189
*1490 FILLER_0_104_195
*1491 FILLER_0_104_197
*1492 FILLER_0_104_209
*1493 FILLER_0_104_221
*1494 FILLER_0_104_233
*1495 FILLER_0_104_245
*1496 FILLER_0_104_251
*1497 FILLER_0_104_253
*1498 FILLER_0_104_265
*1499 FILLER_0_104_27
*1500 FILLER_0_104_277
*1501 FILLER_0_104_289
*1502 FILLER_0_104_29
*1503 FILLER_0_104_3
*1504 FILLER_0_104_301
*1505 FILLER_0_104_307
*1506 FILLER_0_104_309
*1507 FILLER_0_104_321
*1508 FILLER_0_104_333
*1509 FILLER_0_104_345
*1510 FILLER_0_104_357
*1511 FILLER_0_104_363
*1512 FILLER_0_104_365
*1513 FILLER_0_104_377
*1514 FILLER_0_104_389
*1515 FILLER_0_104_401
*1516 FILLER_0_104_41
*1517 FILLER_0_104_413
*1518 FILLER_0_104_419
*1519 FILLER_0_104_421
*1520 FILLER_0_104_433
*1521 FILLER_0_104_445
*1522 FILLER_0_104_457
*1523 FILLER_0_104_469
*1524 FILLER_0_104_475
*1525 FILLER_0_104_477
*1526 FILLER_0_104_489
*1527 FILLER_0_104_501
*1528 FILLER_0_104_513
*1529 FILLER_0_104_525
*1530 FILLER_0_104_53
*1531 FILLER_0_104_531
*1532 FILLER_0_104_533
*1533 FILLER_0_104_545
*1534 FILLER_0_104_557
*1535 FILLER_0_104_569
*1536 FILLER_0_104_581
*1537 FILLER_0_104_587
*1538 FILLER_0_104_589
*1539 FILLER_0_104_601
*1540 FILLER_0_104_613
*1541 FILLER_0_104_625
*1542 FILLER_0_104_637
*1543 FILLER_0_104_643
*1544 FILLER_0_104_645
*1545 FILLER_0_104_65
*1546 FILLER_0_104_657
*1547 FILLER_0_104_669
*1548 FILLER_0_104_681
*1549 FILLER_0_104_693
*1550 FILLER_0_104_699
*1551 FILLER_0_104_701
*1552 FILLER_0_104_713
*1553 FILLER_0_104_725
*1554 FILLER_0_104_77
*1555 FILLER_0_104_83
*1556 FILLER_0_104_85
*1557 FILLER_0_104_97
*1558 FILLER_0_105_105
*1559 FILLER_0_105_111
*1560 FILLER_0_105_113
*1561 FILLER_0_105_125
*1562 FILLER_0_105_137
*1563 FILLER_0_105_149
*1564 FILLER_0_105_161
*1565 FILLER_0_105_167
*1566 FILLER_0_105_169
*1567 FILLER_0_105_18
*1568 FILLER_0_105_181
*1569 FILLER_0_105_193
*1570 FILLER_0_105_205
*1571 FILLER_0_105_217
*1572 FILLER_0_105_223
*1573 FILLER_0_105_225
*1574 FILLER_0_105_237
*1575 FILLER_0_105_249
*1576 FILLER_0_105_261
*1577 FILLER_0_105_273
*1578 FILLER_0_105_279
*1579 FILLER_0_105_281
*1580 FILLER_0_105_293
*1581 FILLER_0_105_30
*1582 FILLER_0_105_305
*1583 FILLER_0_105_317
*1584 FILLER_0_105_329
*1585 FILLER_0_105_335
*1586 FILLER_0_105_337
*1587 FILLER_0_105_349
*1588 FILLER_0_105_361
*1589 FILLER_0_105_373
*1590 FILLER_0_105_385
*1591 FILLER_0_105_391
*1592 FILLER_0_105_393
*1593 FILLER_0_105_405
*1594 FILLER_0_105_417
*1595 FILLER_0_105_42
*1596 FILLER_0_105_429
*1597 FILLER_0_105_441
*1598 FILLER_0_105_447
*1599 FILLER_0_105_449
*1600 FILLER_0_105_461
*1601 FILLER_0_105_473
*1602 FILLER_0_105_485
*1603 FILLER_0_105_497
*1604 FILLER_0_105_503
*1605 FILLER_0_105_505
*1606 FILLER_0_105_517
*1607 FILLER_0_105_529
*1608 FILLER_0_105_54
*1609 FILLER_0_105_541
*1610 FILLER_0_105_553
*1611 FILLER_0_105_559
*1612 FILLER_0_105_561
*1613 FILLER_0_105_57
*1614 FILLER_0_105_573
*1615 FILLER_0_105_585
*1616 FILLER_0_105_597
*1617 FILLER_0_105_6
*1618 FILLER_0_105_609
*1619 FILLER_0_105_615
*1620 FILLER_0_105_617
*1621 FILLER_0_105_629
*1622 FILLER_0_105_641
*1623 FILLER_0_105_653
*1624 FILLER_0_105_665
*1625 FILLER_0_105_671
*1626 FILLER_0_105_673
*1627 FILLER_0_105_685
*1628 FILLER_0_105_69
*1629 FILLER_0_105_697
*1630 FILLER_0_105_709
*1631 FILLER_0_105_721
*1632 FILLER_0_105_727
*1633 FILLER_0_105_729
*1634 FILLER_0_105_81
*1635 FILLER_0_105_93
*1636 FILLER_0_106_109
*1637 FILLER_0_106_121
*1638 FILLER_0_106_133
*1639 FILLER_0_106_139
*1640 FILLER_0_106_141
*1641 FILLER_0_106_15
*1642 FILLER_0_106_153
*1643 FILLER_0_106_165
*1644 FILLER_0_106_177
*1645 FILLER_0_106_189
*1646 FILLER_0_106_195
*1647 FILLER_0_106_197
*1648 FILLER_0_106_209
*1649 FILLER_0_106_221
*1650 FILLER_0_106_233
*1651 FILLER_0_106_245
*1652 FILLER_0_106_251
*1653 FILLER_0_106_253
*1654 FILLER_0_106_265
*1655 FILLER_0_106_27
*1656 FILLER_0_106_277
*1657 FILLER_0_106_289
*1658 FILLER_0_106_29
*1659 FILLER_0_106_3
*1660 FILLER_0_106_301
*1661 FILLER_0_106_307
*1662 FILLER_0_106_309
*1663 FILLER_0_106_321
*1664 FILLER_0_106_333
*1665 FILLER_0_106_345
*1666 FILLER_0_106_357
*1667 FILLER_0_106_363
*1668 FILLER_0_106_365
*1669 FILLER_0_106_377
*1670 FILLER_0_106_389
*1671 FILLER_0_106_401
*1672 FILLER_0_106_41
*1673 FILLER_0_106_413
*1674 FILLER_0_106_419
*1675 FILLER_0_106_421
*1676 FILLER_0_106_433