*SPEF "ieee 1481-1999"
*DESIGN "cnn_kws_accel"
*DATE "11:11:11 Fri 11 11, 1111"
*VENDOR "OpenRCX"
*PROGRAM "Parallel Extraction"
*VERSION "1.0"
*DESIGN_FLOW "NAME_SCOPE LOCAL" "PIN_CAP NONE"
*DIVIDER /
*DELIMITER :
*BUS_DELIMITER []
*T_UNIT 1 NS
*C_UNIT 1 PF
*R_UNIT 1 OHM
*L_UNIT 1 HENRY

*NAME_MAP
*1 audio_sample[0]
*2 audio_sample[10]
*3 audio_sample[11]
*4 audio_sample[12]
*5 audio_sample[13]
*6 audio_sample[14]
*7 audio_sample[15]
*8 audio_sample[1]
*9 audio_sample[2]
*10 audio_sample[3]
*11 audio_sample[4]
*12 audio_sample[5]
*13 audio_sample[6]
*14 audio_sample[7]
*15 audio_sample[8]
*16 audio_sample[9]
*17 clk
*18 done
*19 psram_ce_n
*20 psram_d[0]
*21 net7
*22 net8
*23 net9
*24 net13
*25 net10
*26 net11
*27 net12
*28 psram_sck
*29 rst
*30 sample_valid
*31 start
*34 _0000_
*35 _0001_
*36 _0002_
*37 _0003_
*38 _0004_
*39 _0005_
*40 _0006_
*41 _0007_
*42 _0008_
*43 _0009_
*44 _0010_
*45 _0011_
*46 _0012_
*47 _0013_
*48 _0014_
*49 _0015_
*50 _0016_
*51 _0017_
*52 _0018_
*53 _0019_
*54 _0020_
*55 _0021_
*56 _0022_
*57 _0023_
*58 _0024_
*59 _0025_
*60 _0026_
*61 _0027_
*62 _0028_
*63 _0029_
*64 _0030_
*65 _0031_
*66 _0032_
*67 _0033_
*68 _0034_
*69 _0035_
*70 _0036_
*71 _0037_
*72 _0038_
*73 _0039_
*74 _0040_
*75 _0041_
*76 _0042_
*77 _0043_
*78 _0044_
*79 _0045_
*80 _0046_
*81 _0047_
*82 _0048_
*83 _0049_
*84 _0050_
*85 _0051_
*86 _0052_
*87 _0053_
*88 _0054_
*89 _0055_
*90 _0056_
*91 _0057_
*92 _0058_
*93 _0059_
*94 _0060_
*95 _0061_
*96 _0062_
*97 _0063_
*98 _0064_
*99 _0065_
*100 _0066_
*101 _0067_
*102 _0068_
*103 _0069_
*104 _0070_
*105 _0071_
*106 _0072_
*107 _0073_
*108 _0074_
*109 _0075_
*110 _0076_
*111 _0077_
*112 _0078_
*113 _0079_
*114 _0080_
*115 _0081_
*116 _0082_
*117 _0083_
*118 _0084_
*119 _0085_
*120 _0086_
*121 _0087_
*122 _0088_
*123 _0089_
*124 _0090_
*125 _0091_
*126 _0092_
*127 _0093_
*128 _0094_
*129 _0095_
*130 _0096_
*131 _0097_
*132 _0098_
*133 _0099_
*134 _0100_
*135 _0101_
*136 _0102_
*137 _0103_
*138 _0104_
*139 _0105_
*140 _0106_
*141 _0107_
*142 _0108_
*143 _0109_
*144 _0110_
*145 _0111_
*146 _0112_
*147 _0113_
*148 _0114_
*149 _0115_
*150 _0116_
*151 _0117_
*152 _0118_
*153 _0119_
*154 _0120_
*155 _0121_
*156 _0122_
*157 _0123_
*158 _0124_
*159 _0125_
*160 _0126_
*161 _0127_
*162 _0128_
*163 _0129_
*164 _0130_
*165 _0131_
*166 _0132_
*167 _0133_
*168 _0134_
*169 _0135_
*170 _0136_
*171 _0137_
*172 _0138_
*173 _0139_
*174 _0140_
*175 _0141_
*176 _0142_
*177 _0143_
*178 _0144_
*179 _0145_
*180 _0146_
*181 _0147_
*182 _0148_
*183 _0149_
*184 _0150_
*185 _0151_
*186 _0152_
*187 _0153_
*188 _0154_
*189 _0155_
*190 _0156_
*191 _0157_
*192 _0158_
*193 _0159_
*194 _0160_
*195 _0161_
*196 _0162_
*197 _0163_
*198 _0164_
*199 _0165_
*200 _0166_
*201 _0167_
*202 _0168_
*203 _0169_
*204 _0170_
*205 _0171_
*206 _0172_
*207 _0173_
*208 _0174_
*209 _0175_
*210 _0176_
*211 _0177_
*212 _0178_
*213 _0179_
*214 _0180_
*215 _0181_
*216 _0182_
*217 _0183_
*218 _0184_
*219 _0185_
*220 _0186_
*221 _0187_
*222 _0188_
*223 _0189_
*224 _0190_
*225 _0191_
*226 _0192_
*227 _0193_
*228 _0194_
*229 _0195_
*230 _0196_
*231 _0197_
*232 _0198_
*233 _0199_
*234 _0200_
*235 _0201_
*236 _0202_
*237 _0203_
*238 _0204_
*239 _0205_
*240 _0206_
*241 _0207_
*242 _0208_
*243 _0209_
*244 _0210_
*245 _0211_
*246 _0212_
*247 _0213_
*248 _0214_
*249 _0215_
*250 _0216_
*251 _0217_
*252 _0218_
*253 _0219_
*254 _0220_
*255 _0221_
*256 _0222_
*257 _0223_
*258 _0224_
*259 _0225_
*260 _0226_
*261 _0227_
*262 _0228_
*263 _0229_
*264 _0230_
*265 _0231_
*266 _0232_
*267 _0233_
*268 _0234_
*269 _0235_
*270 _0236_
*271 _0237_
*272 _0238_
*273 _0239_
*274 _0240_
*275 _0241_
*276 _0242_
*277 _0243_
*278 _0244_
*279 _0245_
*280 _0246_
*281 _0247_
*282 _0248_
*283 _0249_
*284 _0250_
*285 _0251_
*286 _0252_
*287 _0253_
*288 _0254_
*289 _0255_
*290 _0256_
*291 _0257_
*292 _0258_
*293 _0259_
*294 _0260_
*295 _0261_
*296 _0262_
*297 _0263_
*298 _0264_
*299 _0265_
*300 _0266_
*301 _0267_
*302 _0268_
*303 _0269_
*304 _0270_
*305 _0271_
*306 _0272_
*307 _0273_
*308 _0274_
*309 _0275_
*310 _0276_
*311 _0277_
*312 _0278_
*313 _0279_
*314 _0280_
*315 _0281_
*316 _0282_
*317 _0283_
*318 _0284_
*319 _0285_
*320 _0286_
*321 _0287_
*322 _0288_
*323 _0289_
*324 _0290_
*325 _0291_
*326 _0292_
*327 _0293_
*328 _0294_
*329 _0295_
*330 _0296_
*331 _0297_
*332 _0298_
*333 _0299_
*334 _0300_
*335 _0301_
*336 _0302_
*337 _0303_
*338 _0304_
*339 _0305_
*340 _0306_
*341 _0307_
*342 _0308_
*343 _0309_
*344 _0310_
*345 _0311_
*346 _0312_
*347 _0313_
*348 _0314_
*349 _0315_
*350 _0316_
*351 _0317_
*352 _0318_
*353 _0319_
*354 _0320_
*355 _0321_
*356 _0322_
*357 _0323_
*358 _0324_
*359 _0325_
*360 _0326_
*361 _0327_
*362 _0328_
*363 _0329_
*364 _0330_
*365 _0331_
*366 _0332_
*367 _0333_
*368 _0334_
*369 _0335_
*370 _0336_
*371 _0337_
*372 _0338_
*373 _0339_
*374 _0340_
*375 _0341_
*376 _0342_
*377 _0343_
*378 _0344_
*379 _0345_
*380 _0346_
*381 _0347_
*382 _0348_
*383 _0349_
*384 _0350_
*385 _0351_
*386 _0352_
*387 _0353_
*388 _0354_
*389 _0355_
*390 _0356_
*391 _0357_
*392 _0358_
*393 _0359_
*394 _0360_
*395 _0361_
*396 _0362_
*397 _0363_
*398 _0364_
*399 _0365_
*400 _0366_
*401 _0367_
*402 _0368_
*403 _0369_
*404 _0370_
*405 _0371_
*406 _0372_
*407 _0373_
*408 _0374_
*409 _0375_
*410 _0376_
*411 _0377_
*412 _0378_
*413 _0379_
*414 _0380_
*415 _0381_
*416 _0382_
*417 _0383_
*418 _0384_
*419 _0385_
*420 _0386_
*421 _0387_
*422 _0388_
*423 _0389_
*424 _0390_
*425 _0391_
*426 _0392_
*427 _0393_
*428 _0394_
*429 _0395_
*430 _0396_
*431 _0397_
*432 _0398_
*433 _0399_
*434 _0400_
*435 _0401_
*436 _0402_
*437 _0403_
*438 _0404_
*439 _0405_
*440 _0406_
*441 _0407_
*442 _0408_
*443 _0409_
*444 _0410_
*445 _0411_
*446 _0412_
*447 _0413_
*448 _0414_
*449 _0415_
*450 _0416_
*451 _0417_
*452 _0418_
*453 _0419_
*454 _0420_
*455 _0421_
*456 _0422_
*457 _0423_
*458 _0424_
*459 _0425_
*460 _0426_
*461 _0427_
*462 _0428_
*463 _0429_
*464 _0430_
*465 _0431_
*466 _0432_
*467 _0433_
*468 _0434_
*469 _0435_
*470 _0436_
*471 _0437_
*472 _0438_
*473 _0439_
*474 _0440_
*475 _0441_
*476 _0442_
*477 _0443_
*478 _0444_
*479 _0445_
*480 _0446_
*481 _0447_
*482 _0448_
*483 _0449_
*484 _0450_
*485 _0451_
*486 _0452_
*487 _0453_
*488 _0454_
*489 _0455_
*490 _0456_
*491 _0457_
*492 _0458_
*493 _0459_
*494 _0460_
*495 _0461_
*496 _0462_
*497 _0463_
*498 _0464_
*499 _0465_
*500 _0466_
*501 _0467_
*502 _0468_
*503 _0469_
*504 _0470_
*505 _0471_
*506 _0472_
*507 _0473_
*508 _0474_
*509 _0475_
*510 _0476_
*511 _0477_
*512 _0478_
*513 _0479_
*514 _0480_
*515 _0481_
*516 _0482_
*517 _0483_
*518 _0484_
*519 _0485_
*520 _0486_
*521 _0487_
*522 _0488_
*523 _0489_
*524 _0490_
*525 _0491_
*526 _0492_
*527 _0493_
*528 _0494_
*529 _0495_
*530 _0496_
*531 _0497_
*532 _0498_
*533 _0499_
*534 _0500_
*535 _0501_
*536 _0502_
*537 _0503_
*538 _0504_
*539 _0505_
*540 _0506_
*541 _0507_
*542 _0508_
*543 _0509_
*544 _0510_
*545 _0511_
*546 _0512_
*547 _0513_
*548 _0514_
*549 _0515_
*550 _0516_
*551 _0517_
*552 _0518_
*553 _0519_
*554 _0520_
*555 _0521_
*556 _0522_
*557 _0523_
*558 _0524_
*559 _0525_
*560 _0526_
*561 _0527_
*562 _0528_
*563 _0529_
*564 _0530_
*565 _0531_
*566 _0532_
*567 _0533_
*568 _0534_
*569 _0535_
*570 _0536_
*571 _0537_
*572 _0538_
*573 _0539_
*574 _0540_
*575 _0541_
*576 _0542_
*577 _0543_
*578 _0544_
*579 _0545_
*580 _0546_
*581 _0547_
*582 _0548_
*583 _0549_
*584 _0550_
*585 _0551_
*586 _0552_
*587 _0553_
*588 _0554_
*589 _0555_
*590 _0556_
*591 _0557_
*592 _0558_
*593 _0559_
*594 _0560_
*595 _0561_
*596 _0562_
*597 _0563_
*598 _0564_
*599 _0565_
*600 _0566_
*601 _0567_
*602 _0568_
*603 _0569_
*604 _0570_
*605 _0571_
*606 _0572_
*607 _0573_
*608 _0574_
*609 _0575_
*610 _0576_
*611 _0577_
*612 _0578_
*613 _0579_
*614 _0580_
*615 _0581_
*616 _0582_
*617 _0583_
*618 _0584_
*619 _0585_
*620 _0586_
*621 _0587_
*622 _0588_
*623 _0589_
*624 _0590_
*625 _0591_
*626 _0592_
*627 _0593_
*628 _0594_
*629 _0595_
*630 _0596_
*631 _0597_
*632 _0598_
*633 _0599_
*634 _0600_
*635 _0601_
*636 _0602_
*637 _0603_
*638 _0604_
*639 _0605_
*640 _0606_
*641 _0607_
*642 _0608_
*643 _0609_
*644 _0610_
*645 clknet_0_clk
*646 clknet_4_0_0_clk
*647 clknet_4_10_0_clk
*648 clknet_4_11_0_clk
*649 clknet_4_12_0_clk
*650 clknet_4_13_0_clk
*651 clknet_4_14_0_clk
*652 clknet_4_15_0_clk
*653 clknet_4_1_0_clk
*654 clknet_4_2_0_clk
*655 clknet_4_3_0_clk
*656 clknet_4_4_0_clk
*657 clknet_4_5_0_clk
*658 clknet_4_6_0_clk
*659 clknet_4_7_0_clk
*660 clknet_4_8_0_clk
*661 clknet_4_9_0_clk
*662 conv1\.addr\[8\]
*663 conv1\.data_valid
*664 conv1\.done
*665 conv1\.psram_ce_n
*666 conv1\.psram_ctrl\.counter\[0\]
*667 conv1\.psram_ctrl\.counter\[1\]
*668 conv1\.psram_ctrl\.counter\[2\]
*669 conv1\.psram_ctrl\.counter\[3\]
*670 conv1\.psram_ctrl\.counter\[4\]
*671 conv1\.psram_ctrl\.counter\[5\]
*672 conv1\.psram_ctrl\.counter\[6\]
*673 conv1\.psram_ctrl\.counter\[7\]
*674 conv1\.psram_ctrl\.has_wait_states
*675 conv1\.psram_ctrl\.nstate
*676 conv1\.psram_ctrl\.sck
*677 conv1\.psram_ctrl\.start
*678 conv1\.psram_ctrl\.state
*679 conv1\.state\[0\]
*680 conv1\.state\[1\]
*681 conv1\.state\[2\]
*682 conv1\.state\[3\]
*683 conv1\.state\[5\]
*684 conv2\.addr\[8\]
*685 conv2\.addr\[9\]
*686 conv2\.data_out_valid
*687 conv2\.data_valid
*688 conv2\.psram_ce_n
*689 conv2\.psram_ctrl\.counter\[0\]
*690 conv2\.psram_ctrl\.counter\[1\]
*691 conv2\.psram_ctrl\.counter\[2\]
*692 conv2\.psram_ctrl\.counter\[3\]
*693 conv2\.psram_ctrl\.counter\[4\]
*694 conv2\.psram_ctrl\.counter\[5\]
*695 conv2\.psram_ctrl\.counter\[6\]
*696 conv2\.psram_ctrl\.counter\[7\]
*697 conv2\.psram_ctrl\.has_wait_states
*698 conv2\.psram_ctrl\.nstate
*699 conv2\.psram_ctrl\.sck
*700 conv2\.psram_ctrl\.start
*701 conv2\.psram_ctrl\.state
*702 conv2\.state\[0\]
*703 conv2\.state\[1\]
*704 conv2\.state\[2\]
*705 conv2\.state\[3\]
*706 conv2\.state\[5\]
*707 fc1\.addr\[10\]
*708 fc1\.addr\[8\]
*709 fc1\.data_out_valid
*710 fc1\.psram_ce_n
*711 fc1\.psram_ctrl\.counter\[0\]
*712 fc1\.psram_ctrl\.counter\[1\]
*713 fc1\.psram_ctrl\.counter\[2\]
*714 fc1\.psram_ctrl\.counter\[3\]
*715 fc1\.psram_ctrl\.counter\[4\]
*716 fc1\.psram_ctrl\.counter\[5\]
*717 fc1\.psram_ctrl\.counter\[6\]
*718 fc1\.psram_ctrl\.counter\[7\]
*719 fc1\.psram_ctrl\.has_wait_states
*720 fc1\.psram_ctrl\.nstate
*721 fc1\.psram_ctrl\.sck
*722 fc1\.psram_ctrl\.start
*723 fc1\.psram_ctrl\.state
*724 fc1\.state\[0\]
*725 fc1\.state\[1\]
*726 fc1\.state\[2\]
*727 fc1\.state\[3\]
*728 fc1\.state\[5\]
*729 fc2\.addr\[10\]
*730 fc2\.addr\[8\]
*731 fc2\.done
*732 fc2\.psram_ce_n
*733 fc2\.psram_ctrl\.counter\[0\]
*734 fc2\.psram_ctrl\.counter\[1\]
*735 fc2\.psram_ctrl\.counter\[2\]
*736 fc2\.psram_ctrl\.counter\[3\]
*737 fc2\.psram_ctrl\.counter\[4\]
*738 fc2\.psram_ctrl\.counter\[5\]
*739 fc2\.psram_ctrl\.counter\[6\]
*740 fc2\.psram_ctrl\.counter\[7\]
*741 fc2\.psram_ctrl\.has_wait_states
*742 fc2\.psram_ctrl\.nstate
*743 fc2\.psram_ctrl\.sck
*744 fc2\.psram_ctrl\.start
*745 fc2\.psram_ctrl\.state
*746 fc2\.state\[0\]
*747 fc2\.state\[1\]
*748 fc2\.state\[2\]
*749 fc2\.state\[3\]
*750 fc2\.state\[5\]
*751 maxpool\.addr\[11\]
*752 maxpool\.addr\[8\]
*753 maxpool\.done
*754 maxpool\.psram_ce_n
*755 maxpool\.psram_ctrl\.counter\[0\]
*756 maxpool\.psram_ctrl\.counter\[1\]
*757 maxpool\.psram_ctrl\.counter\[2\]
*758 maxpool\.psram_ctrl\.counter\[3\]
*759 maxpool\.psram_ctrl\.counter\[4\]
*760 maxpool\.psram_ctrl\.counter\[5\]
*761 maxpool\.psram_ctrl\.counter\[6\]
*762 maxpool\.psram_ctrl\.counter\[7\]
*763 maxpool\.psram_ctrl\.nstate
*764 maxpool\.psram_ctrl\.sck
*765 maxpool\.psram_ctrl\.start
*766 maxpool\.psram_ctrl\.state
*767 maxpool\.start
*768 maxpool\.state\[0\]
*769 maxpool\.state\[2\]
*770 maxpool\.state\[3\]
*771 maxpool\.state\[4\]
*772 mfcc\.dct\.data_valid
*773 mfcc\.dct\.dct_valid
*774 mfcc\.dct\.input_counter\[0\]
*775 mfcc\.dct\.input_counter\[1\]
*776 mfcc\.dct\.input_counter\[2\]
*777 mfcc\.dct\.input_counter\[3\]
*778 mfcc\.dct\.input_counter\[4\]
*779 mfcc\.dct\.output_counter\[0\]
*780 mfcc\.dct\.output_counter\[1\]
*781 mfcc\.dct\.output_counter\[2\]
*782 mfcc\.dct\.output_counter\[3\]
*783 mfcc\.dct\.output_counter\[4\]
*784 mfcc\.dct\.output_counter\[5\]
*785 mfcc\.dct\.state\[0\]
*786 mfcc\.dct\.state\[1\]
*787 mfcc\.log\.data_valid
*788 mfcc\.log\.shift_count\[0\]
*789 mfcc\.log\.shift_count\[1\]
*790 mfcc\.log\.shift_count\[2\]
*791 mfcc\.log\.shift_count\[3\]
*792 mfcc\.log\.state\[0\]
*793 mfcc\.log\.state\[1\]
*794 mfcc\.log\.state\[2\]
*795 mfcc\.mel\.coeff_counter\[0\]
*796 mfcc\.mel\.coeff_counter\[1\]
*797 mfcc\.mel\.coeff_counter\[2\]
*798 mfcc\.mel\.coeff_counter\[3\]
*799 mfcc\.mel\.coeff_counter\[4\]
*800 mfcc\.mel\.filter_counter\[0\]
*801 mfcc\.mel\.filter_counter\[1\]
*802 mfcc\.mel\.filter_counter\[2\]
*803 mfcc\.mel\.filter_counter\[3\]
*804 mfcc\.mel\.filter_counter\[4\]
*805 mfcc\.mel\.filter_counter\[5\]
*806 mfcc\.mel\.state\[0\]
*807 mfcc\.mel\.state\[1\]
*808 mfcc\.mfcc_valid
*809 net1
*810 net100
*811 net101
*812 net102
*813 net103
*814 net104
*815 net105
*816 net106
*817 net107
*818 net108
*819 net109
*820 net110
*821 net111
*822 net112
*823 net113
*824 net114
*825 net115
*826 net116
*827 net117
*828 net118
*829 net119
*830 net120
*831 net121
*832 net122
*833 net123
*834 net124
*835 net125
*836 net126
*837 net127
*838 net128
*839 net129
*840 net130
*841 net131
*842 net132
*843 net133
*844 net134
*845 net135
*846 net136
*847 net137
*848 net138
*849 net139
*850 net14
*851 net140
*852 net141
*853 net142
*854 net143
*855 net144
*856 net145
*857 net146
*858 net147
*859 net148
*860 net149
*861 net15
*862 net150
*863 net151
*864 net152
*865 net153
*866 net154
*867 net155
*868 net156
*869 net157
*870 net158
*871 net159
*872 net16
*873 net160
*874 net161
*875 net162
*876 net163
*877 net164
*878 net165
*879 net166
*880 net167
*881 net168
*882 net169
*883 net17
*884 net18
*885 net19
*886 net2
*887 net20
*888 net21
*889 net22
*890 net23
*891 net24
*892 net25
*893 net26
*894 net27
*895 net28
*896 net29
*897 net3
*898 net30
*899 net31
*900 net32
*901 net33
*902 net34
*903 net35
*904 net36
*905 net37
*906 net38
*907 net39
*908 net4
*909 net40
*910 net41
*911 net42
*912 net43
*913 net44
*914 net45
*915 net46
*916 net47
*917 net48
*918 net49
*919 net5
*920 net50
*921 net51
*922 net52
*923 net53
*924 net54
*925 net55
*926 net56
*927 net57
*928 net58
*929 net59
*930 net6
*931 net60
*932 net61
*933 net62
*934 net63
*935 net64
*936 net65
*937 net66
*938 net67
*939 net68
*940 net69
*941 net70
*942 net71
*943 net72
*944 net73
*945 net74
*946 net75
*947 net76
*948 net77
*949 net78
*950 net79
*951 net80
*952 net81
*953 net82
*954 net83
*955 net84
*956 net85
*957 net86
*958 net87
*959 net88
*960 net89
*961 net90
*962 net91
*963 net92
*964 net93
*965 net94
*966 net95
*967 net96
*968 net97
*969 net98
*970 net99
*971 softmax\.addr\[11\]
*972 softmax\.addr\[8\]
*973 softmax\.data_valid
*974 softmax\.psram_ce_n
*975 softmax\.psram_ctrl\.counter\[0\]
*976 softmax\.psram_ctrl\.counter\[1\]
*977 softmax\.psram_ctrl\.counter\[2\]
*978 softmax\.psram_ctrl\.counter\[3\]
*979 softmax\.psram_ctrl\.counter\[4\]
*980 softmax\.psram_ctrl\.counter\[5\]
*981 softmax\.psram_ctrl\.counter\[6\]
*982 softmax\.psram_ctrl\.counter\[7\]
*983 softmax\.psram_ctrl\.nstate
*984 softmax\.psram_ctrl\.sck
*985 softmax\.psram_ctrl\.start
*986 softmax\.psram_ctrl\.state
*987 softmax\.start
*988 state\[0\]
*989 state\[1\]
*990 state\[4\]
*991 state\[5\]
*992 FILLER_0_0_109
*993 FILLER_0_0_113
*994 FILLER_0_0_125
*995 FILLER_0_0_137
*996 FILLER_0_0_141
*997 FILLER_0_0_15
*998 FILLER_0_0_153
*999 FILLER_0_0_165
*1000 FILLER_0_0_169
*1001 FILLER_0_0_181
*1002 FILLER_0_0_193
*1003 FILLER_0_0_197
*1004 FILLER_0_0_209
*1005 FILLER_0_0_221
*1006 FILLER_0_0_225
*1007 FILLER_0_0_237
*1008 FILLER_0_0_249
*1009 FILLER_0_0_253
*1010 FILLER_0_0_265
*1011 FILLER_0_0_27
*1012 FILLER_0_0_273
*1013 FILLER_0_0_279
*1014 FILLER_0_0_281
*1015 FILLER_0_0_29
*1016 FILLER_0_0_293
*1017 FILLER_0_0_3
*1018 FILLER_0_0_305
*1019 FILLER_0_0_309
*1020 FILLER_0_0_321
*1021 FILLER_0_0_333
*1022 FILLER_0_0_337
*1023 FILLER_0_0_349
*1024 FILLER_0_0_361
*1025 FILLER_0_0_365
*1026 FILLER_0_0_377
*1027 FILLER_0_0_389
*1028 FILLER_0_0_393
*1029 FILLER_0_0_405
*1030 FILLER_0_0_41
*1031 FILLER_0_0_417
*1032 FILLER_0_0_421
*1033 FILLER_0_0_433
*1034 FILLER_0_0_445
*1035 FILLER_0_0_449
*1036 FILLER_0_0_461
*1037 FILLER_0_0_471
*1038 FILLER_0_0_475
*1039 FILLER_0_0_477
*1040 FILLER_0_0_489
*1041 FILLER_0_0_501
*1042 FILLER_0_0_505
*1043 FILLER_0_0_517
*1044 FILLER_0_0_529
*1045 FILLER_0_0_53
*1046 FILLER_0_0_533
*1047 FILLER_0_0_545
*1048 FILLER_0_0_557
*1049 FILLER_0_0_561
*1050 FILLER_0_0_57
*1051 FILLER_0_0_573
*1052 FILLER_0_0_585
*1053 FILLER_0_0_589
*1054 FILLER_0_0_601
*1055 FILLER_0_0_613
*1056 FILLER_0_0_617
*1057 FILLER_0_0_629
*1058 FILLER_0_0_641
*1059 FILLER_0_0_645
*1060 FILLER_0_0_657
*1061 FILLER_0_0_669
*1062 FILLER_0_0_673
*1063 FILLER_0_0_685
*1064 FILLER_0_0_69
*1065 FILLER_0_0_697
*1066 FILLER_0_0_701
*1067 FILLER_0_0_713
*1068 FILLER_0_0_721
*1069 FILLER_0_0_729
*1070 FILLER_0_0_81
*1071 FILLER_0_0_85
*1072 FILLER_0_0_97
*1073 FILLER_0_100_109
*1074 FILLER_0_100_121
*1075 FILLER_0_100_133
*1076 FILLER_0_100_139
*1077 FILLER_0_100_141
*1078 FILLER_0_100_15
*1079 FILLER_0_100_153
*1080 FILLER_0_100_165
*1081 FILLER_0_100_177
*1082 FILLER_0_100_189
*1083 FILLER_0_100_195
*1084 FILLER_0_100_197
*1085 FILLER_0_100_209
*1086 FILLER_0_100_221
*1087 FILLER_0_100_233
*1088 FILLER_0_100_245
*1089 FILLER_0_100_251
*1090 FILLER_0_100_253
*1091 FILLER_0_100_265
*1092 FILLER_0_100_27
*1093 FILLER_0_100_277
*1094 FILLER_0_100_289
*1095 FILLER_0_100_29
*1096 FILLER_0_100_3
*1097 FILLER_0_100_301
*1098 FILLER_0_100_307
*1099 FILLER_0_100_309
*1100 FILLER_0_100_321
*1101 FILLER_0_100_333
*1102 FILLER_0_100_345
*1103 FILLER_0_100_357
*1104 FILLER_0_100_363
*1105 FILLER_0_100_365
*1106 FILLER_0_100_377
*1107 FILLER_0_100_389
*1108 FILLER_0_100_401
*1109 FILLER_0_100_41
*1110 FILLER_0_100_413
*1111 FILLER_0_100_419
*1112 FILLER_0_100_421
*1113 FILLER_0_100_433
*1114 FILLER_0_100_445
*1115 FILLER_0_100_457
*1116 FILLER_0_100_469
*1117 FILLER_0_100_475
*1118 FILLER_0_100_477
*1119 FILLER_0_100_489
*1120 FILLER_0_100_501
*1121 FILLER_0_100_513
*1122 FILLER_0_100_525
*1123 FILLER_0_100_53
*1124 FILLER_0_100_531
*1125 FILLER_0_100_533
*1126 FILLER_0_100_545
*1127 FILLER_0_100_557
*1128 FILLER_0_100_569
*1129 FILLER_0_100_581
*1130 FILLER_0_100_587
*1131 FILLER_0_100_589
*1132 FILLER_0_100_601
*1133 FILLER_0_100_613
*1134 FILLER_0_100_625
*1135 FILLER_0_100_637
*1136 FILLER_0_100_643
*1137 FILLER_0_100_645
*1138 FILLER_0_100_65
*1139 FILLER_0_100_657
*1140 FILLER_0_100_669
*1141 FILLER_0_100_681
*1142 FILLER_0_100_693
*1143 FILLER_0_100_699
*1144 FILLER_0_100_701
*1145 FILLER_0_100_713
*1146 FILLER_0_100_725
*1147 FILLER_0_100_77
*1148 FILLER_0_100_83
*1149 FILLER_0_100_85
*1150 FILLER_0_100_97
*1151 FILLER_0_101_105
*1152 FILLER_0_101_111
*1153 FILLER_0_101_113
*1154 FILLER_0_101_125
*1155 FILLER_0_101_137
*1156 FILLER_0_101_149
*1157 FILLER_0_101_15
*1158 FILLER_0_101_161
*1159 FILLER_0_101_167
*1160 FILLER_0_101_169
*1161 FILLER_0_101_181
*1162 FILLER_0_101_193
*1163 FILLER_0_101_205
*1164 FILLER_0_101_217
*1165 FILLER_0_101_223
*1166 FILLER_0_101_225
*1167 FILLER_0_101_237
*1168 FILLER_0_101_249
*1169 FILLER_0_101_261
*1170 FILLER_0_101_27
*1171 FILLER_0_101_273
*1172 FILLER_0_101_279
*1173 FILLER_0_101_281
*1174 FILLER_0_101_293
*1175 FILLER_0_101_3
*1176 FILLER_0_101_305
*1177 FILLER_0_101_317
*1178 FILLER_0_101_329
*1179 FILLER_0_101_335
*1180 FILLER_0_101_337
*1181 FILLER_0_101_349
*1182 FILLER_0_101_361
*1183 FILLER_0_101_373
*1184 FILLER_0_101_385
*1185 FILLER_0_101_39
*1186 FILLER_0_101_391
*1187 FILLER_0_101_393
*1188 FILLER_0_101_405
*1189 FILLER_0_101_417
*1190 FILLER_0_101_429
*1191 FILLER_0_101_441
*1192 FILLER_0_101_447
*1193 FILLER_0_101_449
*1194 FILLER_0_101_461
*1195 FILLER_0_101_473
*1196 FILLER_0_101_485
*1197 FILLER_0_101_497
*1198 FILLER_0_101_503
*1199 FILLER_0_101_505
*1200 FILLER_0_101_51
*1201 FILLER_0_101_517
*1202 FILLER_0_101_529
*1203 FILLER_0_101_541
*1204 FILLER_0_101_55
*1205 FILLER_0_101_553
*1206 FILLER_0_101_559
*1207 FILLER_0_101_561
*1208 FILLER_0_101_57
*1209 FILLER_0_101_573
*1210 FILLER_0_101_585
*1211 FILLER_0_101_597
*1212 FILLER_0_101_609
*1213 FILLER_0_101_615
*1214 FILLER_0_101_617
*1215 FILLER_0_101_629
*1216 FILLER_0_101_641
*1217 FILLER_0_101_653
*1218 FILLER_0_101_665
*1219 FILLER_0_101_671
*1220 FILLER_0_101_673
*1221 FILLER_0_101_685
*1222 FILLER_0_101_69
*1223 FILLER_0_101_697
*1224 FILLER_0_101_709
*1225 FILLER_0_101_721
*1226 FILLER_0_101_727
*1227 FILLER_0_101_729
*1228 FILLER_0_101_81
*1229 FILLER_0_101_93
*1230 FILLER_0_102_109
*1231 FILLER_0_102_121
*1232 FILLER_0_102_133
*1233 FILLER_0_102_139
*1234 FILLER_0_102_141
*1235 FILLER_0_102_15
*1236 FILLER_0_102_153
*1237 FILLER_0_102_165
*1238 FILLER_0_102_177
*1239 FILLER_0_102_189
*1240 FILLER_0_102_195
*1241 FILLER_0_102_197
*1242 FILLER_0_102_209
*1243 FILLER_0_102_221
*1244 FILLER_0_102_233
*1245 FILLER_0_102_245
*1246 FILLER_0_102_251
*1247 FILLER_0_102_253
*1248 FILLER_0_102_265
*1249 FILLER_0_102_27
*1250 FILLER_0_102_277
*1251 FILLER_0_102_289
*1252 FILLER_0_102_29
*1253 FILLER_0_102_3
*1254 FILLER_0_102_301
*1255 FILLER_0_102_307
*1256 FILLER_0_102_309
*1257 FILLER_0_102_321
*1258 FILLER_0_102_333
*1259 FILLER_0_102_345
*1260 FILLER_0_102_357
*1261 FILLER_0_102_363
*1262 FILLER_0_102_365
*1263 FILLER_0_102_377
*1264 FILLER_0_102_389
*1265 FILLER_0_102_401
*1266 FILLER_0_102_41
*1267 FILLER_0_102_413
*1268 FILLER_0_102_419
*1269 FILLER_0_102_421
*1270 FILLER_0_102_433
*1271 FILLER_0_102_445
*1272 FILLER_0_102_457
*1273 FILLER_0_102_469
*1274 FILLER_0_102_475
*1275 FILLER_0_102_477
*1276 FILLER_0_102_489
*1277 FILLER_0_102_501
*1278 FILLER_0_102_513
*1279 FILLER_0_102_525
*1280 FILLER_0_102_53
*1281 FILLER_0_102_531
*1282 FILLER_0_102_533
*1283 FILLER_0_102_545
*1284 FILLER_0_102_557
*1285 FILLER_0_102_569
*1286 FILLER_0_102_581
*1287 FILLER_0_102_587
*1288 FILLER_0_102_589
*1289 FILLER_0_102_601
*1290 FILLER_0_102_613
*1291 FILLER_0_102_625
*1292 FILLER_0_102_637
*1293 FILLER_0_102_643
*1294 FILLER_0_102_645
*1295 FILLER_0_102_65
*1296 FILLER_0_102_657
*1297 FILLER_0_102_669
*1298 FILLER_0_102_681
*1299 FILLER_0_102_693
*1300 FILLER_0_102_699
*1301 FILLER_0_102_701
*1302 FILLER_0_102_713
*1303 FILLER_0_102_725
*1304 FILLER_0_102_77
*1305 FILLER_0_102_83
*1306 FILLER_0_102_85
*1307 FILLER_0_102_97
*1308 FILLER_0_103_105
*1309 FILLER_0_103_111
*1310 FILLER_0_103_113
*1311 FILLER_0_103_125
*1312 FILLER_0_103_137
*1313 FILLER_0_103_149
*1314 FILLER_0_103_15
*1315 FILLER_0_103_161
*1316 FILLER_0_103_167
*1317 FILLER_0_103_169
*1318 FILLER_0_103_181
*1319 FILLER_0_103_193
*1320 FILLER_0_103_205
*1321 FILLER_0_103_217
*1322 FILLER_0_103_223
*1323 FILLER_0_103_225
*1324 FILLER_0_103_237
*1325 FILLER_0_103_249
*1326 FILLER_0_103_261
*1327 FILLER_0_103_27
*1328 FILLER_0_103_273
*1329 FILLER_0_103_279
*1330 FILLER_0_103_281
*1331 FILLER_0_103_293
*1332 FILLER_0_103_3
*1333 FILLER_0_103_305
*1334 FILLER_0_103_317
*1335 FILLER_0_103_329
*1336 FILLER_0_103_335
*1337 FILLER_0_103_337
*1338 FILLER_0_103_349
*1339 FILLER_0_103_361
*1340 FILLER_0_103_373
*1341 FILLER_0_103_385
*1342 FILLER_0_103_39
*1343 FILLER_0_103_391
*1344 FILLER_0_103_393
*1345 FILLER_0_103_405
*1346 FILLER_0_103_417
*1347 FILLER_0_103_429
*1348 FILLER_0_103_441
*1349 FILLER_0_103_447
*1350 FILLER_0_103_449
*1351 FILLER_0_103_461
*1352 FILLER_0_103_473
*1353 FILLER_0_103_485
*1354 FILLER_0_103_497
*1355 FILLER_0_103_503
*1356 FILLER_0_103_505
*1357 FILLER_0_103_51
*1358 FILLER_0_103_517
*1359 FILLER_0_103_529
*1360 FILLER_0_103_541
*1361 FILLER_0_103_55
*1362 FILLER_0_103_553
*1363 FILLER_0_103_559
*1364 FILLER_0_103_561
*1365 FILLER_0_103_57
*1366 FILLER_0_103_573
*1367 FILLER_0_103_585
*1368 FILLER_0_103_597
*1369 FILLER_0_103_609
*1370 FILLER_0_103_615
*1371 FILLER_0_103_617
*1372 FILLER_0_103_629
*1373 FILLER_0_103_641
*1374 FILLER_0_103_653
*1375 FILLER_0_103_665
*1376 FILLER_0_103_671
*1377 FILLER_0_103_673
*1378 FILLER_0_103_685
*1379 FILLER_0_103_69
*1380 FILLER_0_103_697
*1381 FILLER_0_103_709
*1382 FILLER_0_103_721
*1383 FILLER_0_103_727
*1384 FILLER_0_103_729
*1385 FILLER_0_103_81
*1386 FILLER_0_103_93
*1387 FILLER_0_104_109
*1388 FILLER_0_104_121
*1389 FILLER_0_104_133
*1390 FILLER_0_104_139
*1391 FILLER_0_104_141
*1392 FILLER_0_104_15
*1393 FILLER_0_104_153
*1394 FILLER_0_104_165
*1395 FILLER_0_104_177
*1396 FILLER_0_104_189
*1397 FILLER_0_104_195
*1398 FILLER_0_104_197
*1399 FILLER_0_104_209
*1400 FILLER_0_104_221
*1401 FILLER_0_104_233
*1402 FILLER_0_104_245
*1403 FILLER_0_104_251
*1404 FILLER_0_104_253
*1405 FILLER_0_104_265
*1406 FILLER_0_104_27
*1407 FILLER_0_104_277
*1408 FILLER_0_104_289
*1409 FILLER_0_104_29
*1410 FILLER_0_104_3
*1411 FILLER_0_104_301
*1412 FILLER_0_104_307
*1413 FILLER_0_104_309
*1414 FILLER_0_104_321
*1415 FILLER_0_104_333
*1416 FILLER_0_104_345
*1417 FILLER_0_104_357
*1418 FILLER_0_104_363
*1419 FILLER_0_104_365
*1420 FILLER_0_104_377
*1421 FILLER_0_104_389
*1422 FILLER_0_104_401
*1423 FILLER_0_104_41
*1424 FILLER_0_104_413
*1425 FILLER_0_104_419
*1426 FILLER_0_104_421
*1427 FILLER_0_104_433
*1428 FILLER_0_104_445
*1429 FILLER_0_104_457
*1430 FILLER_0_104_469
*1431 FILLER_0_104_475
*1432 FILLER_0_104_477
*1433 FILLER_0_104_489
*1434 FILLER_0_104_501
*1435 FILLER_0_104_513
*1436 FILLER_0_104_525
*1437 FILLER_0_104_53
*1438 FILLER_0_104_531
*1439 FILLER_0_104_533
*1440 FILLER_0_104_545
*1441 FILLER_0_104_557
*1442 FILLER_0_104_569
*1443 FILLER_0_104_581
*1444 FILLER_0_104_587
*1445 FILLER_0_104_589
*1446 FILLER_0_104_601
*1447 FILLER_0_104_613
*1448 FILLER_0_104_625
*1449 FILLER_0_104_637
*1450 FILLER_0_104_643
*1451 FILLER_0_104_645
*1452 FILLER_0_104_65
*1453 FILLER_0_104_657
*1454 FILLER_0_104_669
*1455 FILLER_0_104_681
*1456 FILLER_0_104_693
*1457 FILLER_0_104_699
*1458 FILLER_0_104_701
*1459 FILLER_0_104_713
*1460 FILLER_0_104_725
*1461 FILLER_0_104_77
*1462 FILLER_0_104_83
*1463 FILLER_0_104_85
*1464 FILLER_0_104_97
*1465 FILLER_0_105_105
*1466 FILLER_0_105_111
*1467 FILLER_0_105_113
*1468 FILLER_0_105_125
*1469 FILLER_0_105_137
*1470 FILLER_0_105_149
*1471 FILLER_0_105_15
*1472 FILLER_0_105_161
*1473 FILLER_0_105_167
*1474 FILLER_0_105_169
*1475 FILLER_0_105_181
*1476 FILLER_0_105_193
*1477 FILLER_0_105_205
*1478 FILLER_0_105_217
*1479 FILLER_0_105_223
*1480 FILLER_0_105_225
*1481 FILLER_0_105_237
*1482 FILLER_0_105_249
*1483 FILLER_0_105_261
*1484 FILLER_0_105_27
*1485 FILLER_0_105_273
*1486 FILLER_0_105_279
*1487 FILLER_0_105_281
*1488 FILLER_0_105_293
*1489 FILLER_0_105_3
*1490 FILLER_0_105_305
*1491 FILLER_0_105_317
*1492 FILLER_0_105_329
*1493 FILLER_0_105_335
*1494 FILLER_0_105_337
*1495 FILLER_0_105_349
*1496 FILLER_0_105_361
*1497 FILLER_0_105_373
*1498 FILLER_0_105_385
*1499 FILLER_0_105_39
*1500 FILLER_0_105_391
*1501 FILLER_0_105_393
*1502 FILLER_0_105_405
*1503 FILLER_0_105_417
*1504 FILLER_0_105_429
*1505 FILLER_0_105_441
*1506 FILLER_0_105_447
*1507 FILLER_0_105_449
*1508 FILLER_0_105_461
*1509 FILLER_0_105_473
*1510 FILLER_0_105_485
*1511 FILLER_0_105_497
*1512 FILLER_0_105_503
*1513 FILLER_0_105_505
*1514 FILLER_0_105_51
*1515 FILLER_0_105_517
*1516 FILLER_0_105_529
*1517 FILLER_0_105_541
*1518 FILLER_0_105_55
*1519 FILLER_0_105_553
*1520 FILLER_0_105_559
*1521 FILLER_0_105_561
*1522 FILLER_0_105_57
*1523 FILLER_0_105_573
*1524 FILLER_0_105_585
*1525 FILLER_0_105_597
*1526 FILLER_0_105_609
*1527 FILLER_0_105_615
*1528 FILLER_0_105_617
*1529 FILLER_0_105_629
*1530 FILLER_0_105_641
*1531 FILLER_0_105_653
*1532 FILLER_0_105_665
*1533 FILLER_0_105_671
*1534 FILLER_0_105_673
*1535 FILLER_0_105_685
*1536 FILLER_0_105_69
*1537 FILLER_0_105_697
*1538 FILLER_0_105_709
*1539 FILLER_0_105_721
*1540 FILLER_0_105_727
*1541 FILLER_0_105_729
*1542 FILLER_0_105_81
*1543 FILLER_0_105_93
*1544 FILLER_0_106_109
*1545 FILLER_0_106_121
*1546 FILLER_0_106_133
*1547 FILLER_0_106_139
*1548 FILLER_0_106_141
*1549 FILLER_0_106_15
*1550 FILLER_0_106_153
*1551 FILLER_0_106_165
*1552 FILLER_0_106_177
*1553 FILLER_0_106_189
*1554 FILLER_0_106_195
*1555 FILLER_0_106_197
*1556 FILLER_0_106_209
*1557 FILLER_0_106_221
*1558 FILLER_0_106_233
*1559 FILLER_0_106_245
*1560 FILLER_0_106_251
*1561 FILLER_0_106_253
*1562 FILLER_0_106_265
*1563 FILLER_0_106_27
*1564 FILLER_0_106_277
*1565 FILLER_0_106_289
*1566 FILLER_0_106_29
*1567 FILLER_0_106_3
*1568 FILLER_0_106_301
*1569 FILLER_0_106_307
*1570 FILLER_0_106_309
*1571 FILLER_0_106_321
*1572 FILLER_0_106_333
*1573 FILLER_0_106_345
*1574 FILLER_0_106_357
*1575 FILLER_0_106_363
*1576 FILLER_0_106_365
*1577 FILLER_0_106_377
*1578 FILLER_0_106_389
*1579 FILLER_0_106_401
*1580 FILLER_0_106_41
*1581 FILLER_0_106_413
*1582 FILLER_0_106_419
*1583 FILLER_0_106_421
*1584 FILLER_0_106_433
*1585 FILLER_0_106_445
*1586 FILLER_0_106_457
*1587 FILLER_0_106_469
*1588 FILLER_0_106_475
*1589 FILLER_0_106_477
*1590 FILLER_0_106_489
*1591 FILLER_0_106_501
*1592 FILLER_0_106_513
*1593 FILLER_0_106_525
*1594 FILLER_0_106_53
*1595 FILLER_0_106_531
*1596 FILLER_0_106_533
*1597 FILLER_0_106_545
*1598 FILLER_0_106_557
*1599 FILLER_0_106_569
*1600 FILLER_0_106_581
*1601 FILLER_0_106_587
*1602 FILLER_0_106_589
*1603 FILLER_0_106_601
*1604 FILLER_0_106_613
*1605 FILLER_0_106_625
*1606 FILLER_0_106_637
*1607 FILLER_0_106_643
*1608 FILLER_0_106_645
*1609 FILLER_0_106_65
*1610 FILLER_0_106_657
*1611 FILLER_0_106_669
*1612 FILLER_0_106_681
*1613 FILLER_0_106_693
*1614 FILLER_0_106_699
*1615 FILLER_0_106_701
*1616 FILLER_0_106_713
*1617 FILLER_0_106_725
*1618 FILLER_0_106_77
*1619 FILLER_0_106_83
*1620 FILLER_0_106_85
*1621 FILLER_0_106_97
*1622 FILLER_0_107_105
*1623 FILLER_0_107_111
*1624 FILLER_0_107_113
*1625 FILLER_0_107_125
*1626 FILLER_0_107_137
*1627 FILLER_0_107_149
*1628 FILLER_0_107_15
*1629 FILLER_0_107_161
*1630 FILLER_0_107_167
*1631 FILLER_0_107_169
*1632 FILLER_0_107_181
*1633 FILLER_0_107_193
*1634 FILLER_0_107_205
*1635 FILLER_0_107_217
*1636 FILLER_0_107_223
*1637 FILLER_0_107_225
*1638 FILLER_0_107_237
*1639 FILLER_0_107_249
*1640 FILLER_0_107_261